<?xml version="1.0" encoding="UTF-8"?>

<!-- generated on 2025-02-25 19:24:04.649939 by osmWebWizard.py UNKNOWN
<configuration>
    <net-file value="/Users/victordiazb/Sumo/2025-02-25-19-22-51/osm.net.xml.gz"/>
    <output-trip-file value="/Users/victordiazb/Sumo/2025-02-25-19-22-51/osm.motorcycle.trips.xml"/>
    <route-file value="/Users/victordiazb/Sumo/2025-02-25-19-22-51/osm.motorcycle.rou.xml"/>
    <prefix value="motorcycle"/>
    <trip-attributes value="departLane=&quot;best&quot;"/>
    <fringe-start-attributes value="departSpeed=&quot;max&quot;"/>
    <vehicle-class value="motorcycle"/>
    <fringe-factor value="2"/>
    <vclass value="motorcycle"/>
    <via-edge-types value="highway.motorway,highway.motorway_link,highway.trunk_link,highway.primary_link,highway.secondary_link,highway.tertiary_link"/>
    <max-distance value="1200.0"/>
    <remove-loops value="True"/>
    <validate value="True"/>
    <insertion-density value="5.0"/>
</configuration>
-->

<!-- generated on 2025-02-25 19:24:04 by Eclipse SUMO duarouter Version 1.22.0
<duarouterConfiguration xmlns:xsi="http://www.w3.org/2001/XMLSchema-instance" xsi:noNamespaceSchemaLocation="http://sumo.dlr.de/xsd/duarouterConfiguration.xsd">

    <input>
        <net-file value="/Users/victordiazb/Sumo/2025-02-25-19-22-51/osm.net.xml.gz"/>
        <route-files value="/Users/victordiazb/Sumo/2025-02-25-19-22-51/osm.motorcycle.trips.xml"/>
    </input>

    <output>
        <output-file value="/Users/victordiazb/Sumo/2025-02-25-19-22-51/osm.motorcycle.trips.xml.tmp"/>
        <alternatives-output value="NUL"/>
        <write-trips value="true"/>
    </output>

    <processing>
        <remove-loops value="true"/>
    </processing>

    <time>
        <begin value="0.0"/>
        <end value="3600.0"/>
    </time>

    <report>
        <no-warnings value="true"/>
        <ignore-errors value="true"/>
        <no-step-log value="true"/>
    </report>

</duarouterConfiguration>
-->

<routes xmlns:xsi="http://www.w3.org/2001/XMLSchema-instance" xsi:noNamespaceSchemaLocation="http://sumo.dlr.de/xsd/routes_file.xsd">
    <vType id="motorcycle_motorcycle" vClass="motorcycle"/>
    <trip id="motorcycle0" type="motorcycle_motorcycle" depart="0.00" departLane="best" from="43322401#6" to="138469485#0"/>
    <trip id="motorcycle1" type="motorcycle_motorcycle" depart="6.65" departLane="best" from="105125215#0" to="24586111#6"/>
    <trip id="motorcycle3" type="motorcycle_motorcycle" depart="19.94" departLane="best" from="105257404#2" to="376301502#0"/>
    <trip id="motorcycle4" type="motorcycle_motorcycle" depart="26.59" departLane="best" from="629865691#4" to="106608581#0"/>
    <trip id="motorcycle5" type="motorcycle_motorcycle" depart="33.24" departLane="best" from="396337671#2" to="45727485#1"/>
    <trip id="motorcycle6" type="motorcycle_motorcycle" depart="39.89" departLane="best" from="151837565#1" to="-838513513#0"/>
    <trip id="motorcycle7" type="motorcycle_motorcycle" depart="46.54" departLane="best" from="856684592#1" to="154863352#1"/>
    <trip id="motorcycle8" type="motorcycle_motorcycle" depart="53.19" departLane="best" from="-376306177#0" to="-43788666#6"/>
    <trip id="motorcycle10" type="motorcycle_motorcycle" depart="66.48" departLane="best" departSpeed="max" from="159704071" to="310274222#2"/>
    <trip id="motorcycle11" type="motorcycle_motorcycle" depart="73.13" departLane="best" from="45727487#3" to="-159491065#6"/>
    <trip id="motorcycle12" type="motorcycle_motorcycle" depart="79.78" departLane="best" from="106368736#0" to="124876651#0"/>
    <trip id="motorcycle13" type="motorcycle_motorcycle" depart="86.43" departLane="best" from="-233853533#7" to="1080707534#0"/>
    <trip id="motorcycle15" type="motorcycle_motorcycle" depart="99.72" departLane="best" from="1176866879#2" to="853201379#3"/>
    <trip id="motorcycle16" type="motorcycle_motorcycle" depart="106.37" departLane="best" from="-80281778#1" to="850391943#0"/>
    <trip id="motorcycle17" type="motorcycle_motorcycle" depart="113.02" departLane="best" from="28238530#0" to="-45700124#2"/>
    <trip id="motorcycle18" type="motorcycle_motorcycle" depart="119.67" departLane="best" departSpeed="max" from="791070553" to="147522277#2"/>
    <trip id="motorcycle19" type="motorcycle_motorcycle" depart="126.32" departLane="best" from="43626849#0" to="165643315#2"/>
    <trip id="motorcycle20" type="motorcycle_motorcycle" depart="132.96" departLane="best" from="117383606#1" to="-117277665#0"/>
    <trip id="motorcycle21" type="motorcycle_motorcycle" depart="139.61" departLane="best" from="29279872#1" to="118249733#1"/>
    <trip id="motorcycle22" type="motorcycle_motorcycle" depart="146.26" departLane="best" from="-35896891#2" to="836793927#0"/>
    <trip id="motorcycle23" type="motorcycle_motorcycle" depart="152.91" departLane="best" from="-162195858#0" to="106404847#2"/>
    <trip id="motorcycle24" type="motorcycle_motorcycle" depart="159.56" departLane="best" from="98815642#1" to="24592659#1"/>
    <trip id="motorcycle25" type="motorcycle_motorcycle" depart="166.20" departLane="best" from="97809544#5" to="27679030#7"/>
    <trip id="motorcycle26" type="motorcycle_motorcycle" depart="172.85" departLane="best" from="43914588#2" to="179959895#5"/>
    <trip id="motorcycle27" type="motorcycle_motorcycle" depart="179.50" departLane="best" from="-182395631#1" to="865628910#12"/>
    <trip id="motorcycle28" type="motorcycle_motorcycle" depart="186.15" departLane="best" from="772452075#2" to="119865673#0"/>
    <trip id="motorcycle29" type="motorcycle_motorcycle" depart="192.80" departLane="best" from="24485294#3" to="-878148482"/>
    <trip id="motorcycle30" type="motorcycle_motorcycle" depart="199.45" departLane="best" from="838513513#1" to="791677502#1"/>
    <trip id="motorcycle31" type="motorcycle_motorcycle" depart="206.09" departLane="best" from="124071117#1" to="43547150#1"/>
    <trip id="motorcycle32" type="motorcycle_motorcycle" depart="212.74" departLane="best" from="585711619#4" to="27702965#1"/>
    <trip id="motorcycle33" type="motorcycle_motorcycle" depart="219.39" departLane="best" from="6066200#1" to="27679335#0"/>
    <trip id="motorcycle34" type="motorcycle_motorcycle" depart="226.04" departLane="best" from="1176866878" to="851398548#4"/>
    <trip id="motorcycle35" type="motorcycle_motorcycle" depart="232.69" departLane="best" from="791677548#1" to="668277147#4"/>
    <trip id="motorcycle37" type="motorcycle_motorcycle" depart="245.98" departLane="best" departSpeed="max" from="-35896891#3" to="24477700#2"/>
    <trip id="motorcycle38" type="motorcycle_motorcycle" depart="252.63" departLane="best" from="22889011#1" to="29279890#2"/>
    <trip id="motorcycle39" type="motorcycle_motorcycle" depart="259.28" departLane="best" from="117383606#1" to="792840307#1"/>
    <trip id="motorcycle40" type="motorcycle_motorcycle" depart="265.93" departLane="best" from="179416926#3" to="105932129#3"/>
    <trip id="motorcycle41" type="motorcycle_motorcycle" depart="272.58" departLane="best" from="45727959#12" to="106407127#1"/>
    <trip id="motorcycle42" type="motorcycle_motorcycle" depart="279.22" departLane="best" from="106369731#7" to="106404851#0"/>
    <trip id="motorcycle43" type="motorcycle_motorcycle" depart="285.87" departLane="best" from="106369731#1" to="838513512#0"/>
    <trip id="motorcycle44" type="motorcycle_motorcycle" depart="292.52" departLane="best" from="855353939#0" to="628243090"/>
    <trip id="motorcycle45" type="motorcycle_motorcycle" depart="299.17" departLane="best" from="39704102" to="179959892#5"/>
    <trip id="motorcycle46" type="motorcycle_motorcycle" depart="305.82" departLane="best" from="-163387593#0" to="155423574"/>
    <trip id="motorcycle47" type="motorcycle_motorcycle" depart="312.46" departLane="best" from="68745284#6" to="-117277665#5"/>
    <trip id="motorcycle48" type="motorcycle_motorcycle" depart="319.11" departLane="best" from="179959892#8" to="766227082"/>
    <trip id="motorcycle49" type="motorcycle_motorcycle" depart="325.76" departLane="best" from="27702856#1" to="-161424711#2"/>
    <trip id="motorcycle51" type="motorcycle_motorcycle" depart="339.06" departLane="best" from="669904988#4" to="-851398548#4"/>
    <trip id="motorcycle53" type="motorcycle_motorcycle" depart="352.35" departLane="best" from="117383606#1" to="623456475"/>
    <trip id="motorcycle54" type="motorcycle_motorcycle" depart="359.00" departLane="best" from="28238524#0" to="45728987#0"/>
    <trip id="motorcycle55" type="motorcycle_motorcycle" depart="365.65" departLane="best" from="876606357#1" to="370073401#4"/>
    <trip id="motorcycle56" type="motorcycle_motorcycle" depart="372.30" departLane="best" from="-161424711#12" to="374796809#7"/>
    <trip id="motorcycle57" type="motorcycle_motorcycle" depart="378.95" departLane="best" from="24485351" to="68745289#0"/>
    <trip id="motorcycle58" type="motorcycle_motorcycle" depart="385.59" departLane="best" from="374796809#7" to="43914587#1"/>
    <trip id="motorcycle59" type="motorcycle_motorcycle" depart="392.24" departLane="best" from="106404855#1" to="515272989"/>
    <trip id="motorcycle60" type="motorcycle_motorcycle" depart="398.89" departLane="best" from="171876070#0" to="374796809#6"/>
    <trip id="motorcycle61" type="motorcycle_motorcycle" depart="405.54" departLane="best" from="43323123#2" to="852648324#1"/>
    <trip id="motorcycle62" type="motorcycle_motorcycle" depart="412.19" departLane="best" from="100050084#0" to="45728983#2"/>
    <trip id="motorcycle63" type="motorcycle_motorcycle" depart="418.84" departLane="best" from="106407127#4" to="165643315#2"/>
    <trip id="motorcycle64" type="motorcycle_motorcycle" depart="425.48" departLane="best" from="43785075#2" to="1360966910#2"/>
    <trip id="motorcycle65" type="motorcycle_motorcycle" depart="432.13" departLane="best" from="138466785" to="563724598#0"/>
    <trip id="motorcycle66" type="motorcycle_motorcycle" depart="438.78" departLane="best" from="98905677" to="98905661"/>
    <trip id="motorcycle67" type="motorcycle_motorcycle" depart="445.43" departLane="best" from="117383606#1" to="852348513#1"/>
    <trip id="motorcycle68" type="motorcycle_motorcycle" depart="452.08" departLane="best" from="792840319#1" to="-793172640#3"/>
    <trip id="motorcycle69" type="motorcycle_motorcycle" depart="458.72" departLane="best" from="376306182#2" to="943229539#0"/>
    <trip id="motorcycle70" type="motorcycle_motorcycle" depart="465.37" departLane="best" from="-43626844#1" to="-107510804#0"/>
    <trip id="motorcycle71" type="motorcycle_motorcycle" depart="472.02" departLane="best" from="635421586#2" to="1360053236#1"/>
    <trip id="motorcycle72" type="motorcycle_motorcycle" depart="478.67" departLane="best" from="43686032#3" to="853256053#4"/>
    <trip id="motorcycle73" type="motorcycle_motorcycle" depart="485.32" departLane="best" from="-515272989" to="-478458110#0"/>
    <trip id="motorcycle74" type="motorcycle_motorcycle" depart="491.97" departLane="best" from="-43785135#3" to="316341996#0"/>
    <trip id="motorcycle77" type="motorcycle_motorcycle" depart="511.91" departLane="best" from="161427296#2" to="-838513510#4"/>
    <trip id="motorcycle78" type="motorcycle_motorcycle" depart="518.56" departLane="best" from="-105125170#1" to="6066195"/>
    <trip id="motorcycle79" type="motorcycle_motorcycle" depart="525.21" departLane="best" from="506569625#1" to="310274222#1"/>
    <trip id="motorcycle80" type="motorcycle_motorcycle" depart="531.85" departLane="best" from="836793927#2" to="28238533#0"/>
    <trip id="motorcycle81" type="motorcycle_motorcycle" depart="538.50" departLane="best" departSpeed="max" from="659561491" to="374796807#4"/>
    <trip id="motorcycle82" type="motorcycle_motorcycle" depart="545.15" departLane="best" from="636300128#2" to="-6065718#1"/>
    <trip id="motorcycle83" type="motorcycle_motorcycle" depart="551.80" departLane="best" from="820907210#1" to="105932126#2"/>
    <trip id="motorcycle84" type="motorcycle_motorcycle" depart="558.45" departLane="best" from="1119334283#0" to="-45701923#1"/>
    <trip id="motorcycle86" type="motorcycle_motorcycle" depart="571.74" departLane="best" from="-668329129#1" to="852028670#2"/>
    <trip id="motorcycle87" type="motorcycle_motorcycle" depart="578.39" departLane="best" from="707242478#1" to="912767452#1"/>
    <trip id="motorcycle89" type="motorcycle_motorcycle" depart="591.69" departLane="best" from="105932120#1" to="639429768#0"/>
    <trip id="motorcycle90" type="motorcycle_motorcycle" depart="598.34" departLane="best" from="184573005#2" to="138469481#2"/>
    <trip id="motorcycle91" type="motorcycle_motorcycle" depart="604.98" departLane="best" from="628535426#1" to="106608581#1"/>
    <trip id="motorcycle92" type="motorcycle_motorcycle" depart="611.63" departLane="best" departSpeed="max" from="-118249702#4" to="10101244#4"/>
    <trip id="motorcycle93" type="motorcycle_motorcycle" depart="618.28" departLane="best" from="147522281#2" to="766227092#3"/>
    <trip id="motorcycle94" type="motorcycle_motorcycle" depart="624.93" departLane="best" from="876564558#0" to="124048601#1"/>
    <trip id="motorcycle95" type="motorcycle_motorcycle" depart="631.58" departLane="best" from="92528722#0" to="27702745#3"/>
    <trip id="motorcycle96" type="motorcycle_motorcycle" depart="638.22" departLane="best" from="852028670#4" to="478458110#0"/>
    <trip id="motorcycle97" type="motorcycle_motorcycle" depart="644.87" departLane="best" departSpeed="max" from="878148482" to="-878148482"/>
    <trip id="motorcycle99" type="motorcycle_motorcycle" depart="658.17" departLane="best" from="-43788666#2" to="179959895#5"/>
    <trip id="motorcycle100" type="motorcycle_motorcycle" depart="664.82" departLane="best" from="376306175#6" to="24592663#6"/>
    <trip id="motorcycle101" type="motorcycle_motorcycle" depart="671.47" departLane="best" from="27679006#1" to="46715344#2"/>
    <trip id="motorcycle102" type="motorcycle_motorcycle" depart="678.11" departLane="best" from="506569625#11" to="43788666#7"/>
    <trip id="motorcycle103" type="motorcycle_motorcycle" depart="684.76" departLane="best" from="158065211#0" to="240821221#0"/>
    <trip id="motorcycle104" type="motorcycle_motorcycle" depart="691.41" departLane="best" from="163387593#0" to="130416694#2"/>
    <trip id="motorcycle105" type="motorcycle_motorcycle" depart="698.06" departLane="best" from="852062315" to="43914588#7"/>
    <trip id="motorcycle106" type="motorcycle_motorcycle" depart="704.71" departLane="best" from="98905677" to="411782120#3"/>
    <trip id="motorcycle107" type="motorcycle_motorcycle" depart="711.35" departLane="best" from="124365496#1" to="29279872#0"/>
    <trip id="motorcycle108" type="motorcycle_motorcycle" depart="718.00" departLane="best" from="-1033009785#1" to="124079499#0"/>
    <trip id="motorcycle109" type="motorcycle_motorcycle" depart="724.65" departLane="best" from="43626848#1" to="22889010#4"/>
    <trip id="motorcycle110" type="motorcycle_motorcycle" depart="731.30" departLane="best" from="22889010#4" to="837796140#4"/>
    <trip id="motorcycle111" type="motorcycle_motorcycle" depart="737.95" departLane="best" from="-35896891#2" to="24661250#2"/>
    <trip id="motorcycle112" type="motorcycle_motorcycle" depart="744.60" departLane="best" from="42780880#1" to="154863321#0"/>
    <trip id="motorcycle113" type="motorcycle_motorcycle" depart="751.24" departLane="best" from="635951650#1" to="537208013#1"/>
    <trip id="motorcycle114" type="motorcycle_motorcycle" depart="757.89" departLane="best" from="1080707534#1" to="233853533#9"/>
    <trip id="motorcycle115" type="motorcycle_motorcycle" depart="764.54" departLane="best" from="669904988#6" to="27702716#1"/>
    <trip id="motorcycle116" type="motorcycle_motorcycle" depart="771.19" departLane="best" departSpeed="max" from="-878170804#1" to="45702405#1"/>
    <trip id="motorcycle117" type="motorcycle_motorcycle" depart="777.84" departLane="best" from="24477649#1" to="11540872#1"/>
    <trip id="motorcycle118" type="motorcycle_motorcycle" depart="784.48" departLane="best" from="43626849#1" to="-106608557#1"/>
    <trip id="motorcycle119" type="motorcycle_motorcycle" depart="791.13" departLane="best" from="515087189#1" to="6065750#1"/>
    <trip id="motorcycle120" type="motorcycle_motorcycle" depart="797.78" departLane="best" from="106608557#2" to="179959886#3"/>
    <trip id="motorcycle121" type="motorcycle_motorcycle" depart="804.43" departLane="best" from="24586207#0" to="-161424711#12"/>
    <trip id="motorcycle122" type="motorcycle_motorcycle" depart="811.08" departLane="best" from="1110881022" to="-675513366#0"/>
    <trip id="motorcycle123" type="motorcycle_motorcycle" depart="817.73" departLane="best" from="184566431#10" to="629865693#0"/>
    <trip id="motorcycle124" type="motorcycle_motorcycle" depart="824.37" departLane="best" from="374796809#8" to="856684592#2"/>
    <trip id="motorcycle125" type="motorcycle_motorcycle" depart="831.02" departLane="best" from="79854425#6" to="408855744#1"/>
    <trip id="motorcycle126" type="motorcycle_motorcycle" depart="837.67" departLane="best" from="45728980#4" to="24586111#2"/>
    <trip id="motorcycle127" type="motorcycle_motorcycle" depart="844.32" departLane="best" from="643308205#5" to="29279831#4"/>
    <trip id="motorcycle128" type="motorcycle_motorcycle" depart="850.97" departLane="best" from="820907203#5" to="513660218#2"/>
    <trip id="motorcycle129" type="motorcycle_motorcycle" depart="857.61" departLane="best" from="22889010#7" to="118249702#3"/>
    <trip id="motorcycle130" type="motorcycle_motorcycle" depart="864.26" departLane="best" from="1101496865#0" to="43326920#2"/>
    <trip id="motorcycle131" type="motorcycle_motorcycle" depart="870.91" departLane="best" from="596093948#0" to="26547001#0"/>
    <trip id="motorcycle132" type="motorcycle_motorcycle" depart="877.56" departLane="best" from="232462387#4" to="124071131"/>
    <trip id="motorcycle133" type="motorcycle_motorcycle" depart="884.21" departLane="best" from="27679030#10" to="-639429765#0"/>
    <trip id="motorcycle134" type="motorcycle_motorcycle" depart="890.86" departLane="best" from="24661262#1" to="106404840#1"/>
    <trip id="motorcycle135" type="motorcycle_motorcycle" depart="897.50" departLane="best" from="45727599#6" to="182395631#1"/>
    <trip id="motorcycle138" type="motorcycle_motorcycle" depart="917.45" departLane="best" from="-35896891#1" to="-45702398#2"/>
    <trip id="motorcycle139" type="motorcycle_motorcycle" depart="924.10" departLane="best" from="675513366#0" to="6065710"/>
    <trip id="motorcycle140" type="motorcycle_motorcycle" depart="930.74" departLane="best" departSpeed="max" from="160116579#0" to="-106608569"/>
    <trip id="motorcycle142" type="motorcycle_motorcycle" depart="944.04" departLane="best" from="171828387#2" to="515272984#5"/>
    <trip id="motorcycle143" type="motorcycle_motorcycle" depart="950.69" departLane="best" from="27680115#1" to="378871792#5"/>
    <trip id="motorcycle146" type="motorcycle_motorcycle" depart="970.63" departLane="best" from="151472995#2" to="43914847#1"/>
    <trip id="motorcycle147" type="motorcycle_motorcycle" depart="977.28" departLane="best" from="164109882#0" to="-850818973"/>
    <trip id="motorcycle148" type="motorcycle_motorcycle" depart="983.93" departLane="best" from="408855742#0" to="-147522281#1"/>
    <trip id="motorcycle149" type="motorcycle_motorcycle" depart="990.58" departLane="best" from="161462215#1" to="33464274#0"/>
    <trip id="motorcycle150" type="motorcycle_motorcycle" depart="997.23" departLane="best" from="-537208013#0" to="213558268#5"/>
    <trip id="motorcycle151" type="motorcycle_motorcycle" depart="1003.87" departLane="best" from="1034111836" to="151837565#1"/>
    <trip id="motorcycle152" type="motorcycle_motorcycle" depart="1010.52" departLane="best" from="585711619#1" to="161461554#1"/>
    <trip id="motorcycle153" type="motorcycle_motorcycle" depart="1017.17" departLane="best" from="515272984#2" to="668277147#7"/>
    <trip id="motorcycle154" type="motorcycle_motorcycle" depart="1023.82" departLane="best" from="1176866878" to="27702965#1"/>
    <trip id="motorcycle155" type="motorcycle_motorcycle" depart="1030.47" departLane="best" from="991441096#1" to="515087189#0"/>
    <trip id="motorcycle156" type="motorcycle_motorcycle" depart="1037.12" departLane="best" from="304209183#1" to="106404842#1"/>
    <trip id="motorcycle157" type="motorcycle_motorcycle" depart="1043.76" departLane="best" departSpeed="max" from="45702398#0" to="6065721#0"/>
    <trip id="motorcycle158" type="motorcycle_motorcycle" depart="1050.41" departLane="best" from="-838513512#1" to="876606357#1"/>
    <trip id="motorcycle159" type="motorcycle_motorcycle" depart="1057.06" departLane="best" departSpeed="max" from="509472374#0" to="-478458096"/>
    <trip id="motorcycle160" type="motorcycle_motorcycle" depart="1063.71" departLane="best" from="635951650#3" to="876564577#1"/>
    <trip id="motorcycle161" type="motorcycle_motorcycle" depart="1070.36" departLane="best" from="1360053162#1" to="-43914588#7"/>
    <trip id="motorcycle162" type="motorcycle_motorcycle" depart="1077.00" departLane="best" from="45700124#2" to="42782186#1"/>
    <trip id="motorcycle163" type="motorcycle_motorcycle" depart="1083.65" departLane="best" from="669904988#8" to="376306182#1"/>
    <trip id="motorcycle164" type="motorcycle_motorcycle" depart="1090.30" departLane="best" from="6067233#0" to="158054262#0"/>
    <trip id="motorcycle165" type="motorcycle_motorcycle" depart="1096.95" departLane="best" from="24493077#2" to="156511862#2"/>
    <trip id="motorcycle166" type="motorcycle_motorcycle" depart="1103.60" departLane="best" from="669904988#6" to="644378838"/>
    <trip id="motorcycle167" type="motorcycle_motorcycle" depart="1110.25" departLane="best" from="-43686026#1" to="866622595"/>
    <trip id="motorcycle169" type="motorcycle_motorcycle" depart="1123.54" departLane="best" from="45727609#1" to="179959895#8"/>
    <trip id="motorcycle170" type="motorcycle_motorcycle" depart="1130.19" departLane="best" from="-478458103" to="876606357#1"/>
    <trip id="motorcycle171" type="motorcycle_motorcycle" depart="1136.84" departLane="best" departSpeed="max" from="118183618" to="635421586#1"/>
    <trip id="motorcycle172" type="motorcycle_motorcycle" depart="1143.49" departLane="best" from="1176866879#5" to="68745284#3"/>
    <trip id="motorcycle173" type="motorcycle_motorcycle" depart="1150.13" departLane="best" from="643308205#5" to="41236007#1"/>
    <trip id="motorcycle174" type="motorcycle_motorcycle" depart="1156.78" departLane="best" from="211620275#0" to="39704103#1"/>
    <trip id="motorcycle175" type="motorcycle_motorcycle" depart="1163.43" departLane="best" departSpeed="max" from="159704072" to="151472998#2"/>
    <trip id="motorcycle177" type="motorcycle_motorcycle" depart="1176.73" departLane="best" from="151837565#1" to="795563564#1"/>
    <trip id="motorcycle178" type="motorcycle_motorcycle" depart="1183.38" departLane="best" from="45702398#3" to="120840568#1"/>
    <trip id="motorcycle179" type="motorcycle_motorcycle" depart="1190.02" departLane="best" departSpeed="max" from="-35896891#3" to="472086220#4"/>
    <trip id="motorcycle180" type="motorcycle_motorcycle" depart="1196.67" departLane="best" from="24415918#1" to="-589472310#1"/>
    <trip id="motorcycle181" type="motorcycle_motorcycle" depart="1203.32" departLane="best" from="24415928#6" to="628584752#4"/>
    <trip id="motorcycle182" type="motorcycle_motorcycle" depart="1209.97" departLane="best" from="45701920#2" to="138469482#1"/>
    <trip id="motorcycle183" type="motorcycle_motorcycle" depart="1216.62" departLane="best" from="352349422#4" to="233853532#3"/>
    <trip id="motorcycle184" type="motorcycle_motorcycle" depart="1223.26" departLane="best" from="24735491#1" to="179959886#5"/>
    <trip id="motorcycle185" type="motorcycle_motorcycle" depart="1229.91" departLane="best" from="506569625#3" to="153180992#0"/>
    <trip id="motorcycle186" type="motorcycle_motorcycle" depart="1236.56" departLane="best" from="45727484#1" to="120728835#0"/>
    <trip id="motorcycle187" type="motorcycle_motorcycle" depart="1243.21" departLane="best" from="878170797" to="515272984#5"/>
    <trip id="motorcycle188" type="motorcycle_motorcycle" depart="1249.86" departLane="best" from="27674223#2" to="598339846#3"/>
    <trip id="motorcycle189" type="motorcycle_motorcycle" depart="1256.51" departLane="best" from="883139601#2" to="27674226#1"/>
    <trip id="motorcycle190" type="motorcycle_motorcycle" depart="1263.15" departLane="best" from="120728835#0" to="45562879#1"/>
    <trip id="motorcycle191" type="motorcycle_motorcycle" depart="1269.80" departLane="best" from="-853256039#0" to="1176866877#4"/>
    <trip id="motorcycle192" type="motorcycle_motorcycle" depart="1276.45" departLane="best" from="879597515" to="316341996#1"/>
    <trip id="motorcycle193" type="motorcycle_motorcycle" depart="1283.10" departLane="best" from="45701936#1" to="-60085885#1"/>
    <trip id="motorcycle196" type="motorcycle_motorcycle" depart="1303.04" departLane="best" from="852278119#2" to="-24379139#4"/>
    <trip id="motorcycle197" type="motorcycle_motorcycle" depart="1309.69" departLane="best" departSpeed="max" from="-184234995" to="43322401#1"/>
    <trip id="motorcycle198" type="motorcycle_motorcycle" depart="1316.34" departLane="best" from="29279892#1" to="138466786#1"/>
    <trip id="motorcycle199" type="motorcycle_motorcycle" depart="1322.99" departLane="best" from="9779635#4" to="515272984#0"/>
    <trip id="motorcycle200" type="motorcycle_motorcycle" depart="1329.64" departLane="best" from="43323123#2" to="184573004#3"/>
    <trip id="motorcycle201" type="motorcycle_motorcycle" depart="1336.28" departLane="best" from="179959892#5" to="74549931#8"/>
    <trip id="motorcycle202" type="motorcycle_motorcycle" depart="1342.93" departLane="best" departSpeed="max" from="96286309" to="138469481#2"/>
    <trip id="motorcycle203" type="motorcycle_motorcycle" depart="1349.58" departLane="best" from="39704103#1" to="629865676#0"/>
    <trip id="motorcycle204" type="motorcycle_motorcycle" depart="1356.23" departLane="best" from="506569622#3" to="856684527#3"/>
    <trip id="motorcycle205" type="motorcycle_motorcycle" depart="1362.88" departLane="best" from="1010543835" to="105932127#2"/>
    <trip id="motorcycle206" type="motorcycle_motorcycle" depart="1369.52" departLane="best" departSpeed="max" from="43686019#0" to="838513513#6"/>
    <trip id="motorcycle208" type="motorcycle_motorcycle" depart="1382.82" departLane="best" from="45727484#1" to="202438589#1"/>
    <trip id="motorcycle210" type="motorcycle_motorcycle" depart="1396.12" departLane="best" from="120840576#2" to="-591685956#0"/>
    <trip id="motorcycle211" type="motorcycle_motorcycle" depart="1402.77" departLane="best" from="-852348514#3" to="24559399#3"/>
    <trip id="motorcycle212" type="motorcycle_motorcycle" depart="1409.41" departLane="best" from="24477647#3" to="376306165#2"/>
    <trip id="motorcycle213" type="motorcycle_motorcycle" depart="1416.06" departLane="best" from="-154746997#1" to="-179959893#1"/>
    <trip id="motorcycle214" type="motorcycle_motorcycle" depart="1422.71" departLane="best" from="138628099" to="117277670#1"/>
    <trip id="motorcycle215" type="motorcycle_motorcycle" depart="1429.36" departLane="best" from="376306174#2" to="870690822"/>
    <trip id="motorcycle216" type="motorcycle_motorcycle" depart="1436.01" departLane="best" from="43785076#2" to="120728790#1"/>
    <trip id="motorcycle217" type="motorcycle_motorcycle" depart="1442.65" departLane="best" from="218338730#1" to="43685511"/>
    <trip id="motorcycle218" type="motorcycle_motorcycle" depart="1449.30" departLane="best" departSpeed="max" from="365194761" to="43323123#2"/>
    <trip id="motorcycle219" type="motorcycle_motorcycle" depart="1455.95" departLane="best" from="24415928#8" to="-43685605#5"/>
    <trip id="motorcycle220" type="motorcycle_motorcycle" depart="1462.60" departLane="best" from="154746997#1" to="154746995#1"/>
    <trip id="motorcycle221" type="motorcycle_motorcycle" depart="1469.25" departLane="best" from="43784763#1" to="74549931#2"/>
    <trip id="motorcycle222" type="motorcycle_motorcycle" depart="1475.90" departLane="best" from="120840568#1" to="22889010#2"/>
    <trip id="motorcycle223" type="motorcycle_motorcycle" depart="1482.54" departLane="best" from="164109882#0" to="24611772#6"/>
    <trip id="motorcycle227" type="motorcycle_motorcycle" depart="1509.14" departLane="best" from="27702745#3" to="851398546"/>
    <trip id="motorcycle228" type="motorcycle_motorcycle" depart="1515.78" departLane="best" from="179959886#3" to="45727486#1"/>
    <trip id="motorcycle231" type="motorcycle_motorcycle" depart="1535.73" departLane="best" from="119865673#2" to="24553501#0"/>
    <trip id="motorcycle232" type="motorcycle_motorcycle" depart="1542.38" departLane="best" from="-45728967#1" to="24592656#1"/>
    <trip id="motorcycle233" type="motorcycle_motorcycle" depart="1549.03" departLane="best" from="92528715#0" to="11540872#1"/>
    <trip id="motorcycle234" type="motorcycle_motorcycle" depart="1555.67" departLane="best" from="27702963#2" to="161956258#2"/>
    <trip id="motorcycle236" type="motorcycle_motorcycle" depart="1568.97" departLane="best" from="791677548#1" to="766227092#2"/>
    <trip id="motorcycle237" type="motorcycle_motorcycle" depart="1575.62" departLane="best" from="119865673#2" to="628584747#3"/>
    <trip id="motorcycle238" type="motorcycle_motorcycle" depart="1582.27" departLane="best" from="171825738#1" to="852348514#2"/>
    <trip id="motorcycle239" type="motorcycle_motorcycle" depart="1588.91" departLane="best" from="24496537#4" to="642635702#1"/>
    <trip id="motorcycle240" type="motorcycle_motorcycle" depart="1595.56" departLane="best" from="120728835#0" to="1360053162#2"/>