<?xml version="1.0" encoding="UTF-8"?>

<!-- generated on 2025-02-25 19:24:07.757747 by osmWebWizard.py UNKNOWN
<configuration>
    <net-file value="/Users/victordiazb/Sumo/2025-02-25-19-22-51/osm.net.xml.gz"/>
    <output-trip-file value="/Users/victordiazb/Sumo/2025-02-25-19-22-51/osm.passenger.trips.xml"/>
    <route-file value="/Users/victordiazb/Sumo/2025-02-25-19-22-51/osm.passenger.rou.xml"/>
    <prefix value="veh"/>
    <trip-attributes value="departLane=&quot;best&quot;"/>
    <fringe-start-attributes value="departSpeed=&quot;max&quot;"/>
    <vehicle-class value="passenger"/>
    <lanes value="True"/>
    <fringe-factor value="5"/>
    <allow-fringe.min-length value="1000.0"/>
    <via-edge-types value="highway.motorway,highway.motorway_link,highway.trunk_link,highway.primary_link,highway.secondary_link,highway.tertiary_link"/>
    <min-distance value="300.0"/>
    <min-distance.fringe value="10.0"/>
    <remove-loops value="True"/>
    <validate value="True"/>
    <insertion-density value="12.0"/>
</configuration>
-->

<!-- generated on 2025-02-25 19:24:07 by Eclipse SUMO duarouter Version 1.22.0
<duarouterConfiguration xmlns:xsi="http://www.w3.org/2001/XMLSchema-instance" xsi:noNamespaceSchemaLocation="http://sumo.dlr.de/xsd/duarouterConfiguration.xsd">

    <input>
        <net-file value="/Users/victordiazb/Sumo/2025-02-25-19-22-51/osm.net.xml.gz"/>
        <route-files value="/Users/victordiazb/Sumo/2025-02-25-19-22-51/osm.passenger.trips.xml"/>
    </input>

    <output>
        <output-file value="/Users/victordiazb/Sumo/2025-02-25-19-22-51/osm.passenger.trips.xml.tmp"/>
        <alternatives-output value="NUL"/>
        <write-trips value="true"/>
    </output>

    <processing>
        <remove-loops value="true"/>
    </processing>

    <time>
        <begin value="0.0"/>
        <end value="3600.0"/>
    </time>

    <report>
        <no-warnings value="true"/>
        <ignore-errors value="true"/>
        <no-step-log value="true"/>
    </report>

</duarouterConfiguration>
-->

<routes xmlns:xsi="http://www.w3.org/2001/XMLSchema-instance" xsi:noNamespaceSchemaLocation="http://sumo.dlr.de/xsd/routes_file.xsd">
    <vType id="veh_passenger" vClass="passenger"/>
    <trip id="veh0" type="veh_passenger" depart="0.00" departLane="best" from="43548784#1" to="151472998#1"/>
    <trip id="veh1" type="veh_passenger" depart="2.85" departLane="best" departSpeed="max" from="118183618" to="1120298150#0"/>
    <trip id="veh2" type="veh_passenger" depart="5.71" departLane="best" departSpeed="max" from="509472374#0" to="45701935#3"/>
    <trip id="veh3" type="veh_passenger" depart="8.56" departLane="best" from="820907203#3" to="-43685605#5"/>
    <trip id="veh5" type="veh_passenger" depart="14.27" departLane="best" from="105125186#0" to="26547002#0"/>
    <trip id="veh6" type="veh_passenger" depart="17.12" departLane="best" from="118249728#1" to="105932129#3"/>
    <trip id="veh7" type="veh_passenger" depart="19.98" departLane="best" from="105257404#2" to="378872530#4"/>
    <trip id="veh8" type="veh_passenger" depart="22.83" departLane="best" departSpeed="max" from="636300128#0" to="106608581#1"/>
    <trip id="veh9" type="veh_passenger" depart="25.68" departLane="best" from="151472998#1" to="-852648325"/>
    <trip id="veh10" type="veh_passenger" depart="28.54" departLane="best" from="862094920" to="158065188#3"/>
    <trip id="veh11" type="veh_passenger" depart="31.39" departLane="best" from="-370073401#3" to="-45701924"/>
    <trip id="veh12" type="veh_passenger" depart="34.24" departLane="best" departSpeed="max" from="68745284#0" to="42780861#1"/>
    <trip id="veh13" type="veh_passenger" depart="37.10" departLane="best" from="635951661#0" to="515272989"/>
    <trip id="veh14" type="veh_passenger" depart="39.95" departLane="best" from="27679006#4" to="883139601#2"/>
    <trip id="veh15" type="veh_passenger" depart="42.80" departLane="best" departSpeed="max" from="159661118#0" to="370071013#2"/>
    <trip id="veh16" type="veh_passenger" depart="45.66" departLane="best" from="668277149#7" to="43323134#2"/>
    <trip id="veh17" type="veh_passenger" depart="48.51" departLane="best" departSpeed="max" from="74549912#0" to="376306175#8"/>
    <trip id="veh18" type="veh_passenger" depart="51.36" departLane="best" from="45728946#1" to="-160116579#0"/>
    <trip id="veh19" type="veh_passenger" depart="54.22" departLane="best" from="106368736#1" to="138469479#0"/>
    <trip id="veh20" type="veh_passenger" depart="57.07" departLane="best" departSpeed="max" from="-184234995" to="-117277665#3"/>
    <trip id="veh21" type="veh_passenger" depart="59.93" departLane="best" from="-41236007#1" to="130416692#0"/>
    <trip id="veh23" type="veh_passenger" depart="65.63" departLane="best" departSpeed="max" from="117383606#0" to="856684527#3"/>
    <trip id="veh24" type="veh_passenger" depart="68.49" departLane="best" from="515087189#0" to="42782186#1"/>
    <trip id="veh26" type="veh_passenger" depart="74.19" departLane="best" from="836793948#2" to="162195859#2"/>
    <trip id="veh27" type="veh_passenger" depart="77.05" departLane="best" from="9714276" to="43686026#1"/>
    <trip id="veh28" type="veh_passenger" depart="79.90" departLane="best" from="316341982" to="45727599#2"/>
    <trip id="veh29" type="veh_passenger" depart="82.75" departLane="best" from="673560719#2" to="-629865687#0"/>
    <trip id="veh31" type="veh_passenger" depart="88.46" departLane="best" from="1360966910#4" to="218338730#1"/>
    <trip id="veh32" type="veh_passenger" depart="91.32" departLane="best" from="1034111837#0" to="865628910#12"/>
    <trip id="veh33" type="veh_passenger" depart="94.17" departLane="best" from="791677548#0" to="-153180990"/>
    <trip id="veh34" type="veh_passenger" depart="97.02" departLane="best" from="43686032#3" to="171825747#0"/>
    <trip id="veh35" type="veh_passenger" depart="99.88" departLane="best" from="838513562#3" to="220757194"/>
    <trip id="veh36" type="veh_passenger" depart="102.73" departLane="best" departSpeed="max" from="117277670#0" to="118249702#4"/>
    <trip id="veh37" type="veh_passenger" depart="105.58" departLane="best" from="316341996#8" to="120840576#2"/>
    <trip id="veh38" type="veh_passenger" depart="108.44" departLane="best" from="161956258#0" to="1103591478#1"/>
    <trip id="veh40" type="veh_passenger" depart="114.14" departLane="best" from="370070821#6" to="161285212#1"/>
    <trip id="veh41" type="veh_passenger" depart="117.00" departLane="best" from="-43685605#3" to="43548798#0"/>
    <trip id="veh43" type="veh_passenger" depart="122.70" departLane="best" from="97809556#2" to="316341996#1"/>
    <trip id="veh44" type="veh_passenger" depart="125.56" departLane="best" from="878148491#2" to="791677548#0"/>
    <trip id="veh45" type="veh_passenger" depart="128.41" departLane="best" from="1092671599#1" to="506569625#3"/>
    <trip id="veh46" type="veh_passenger" depart="131.27" departLane="best" from="45564558" to="33464274#0"/>
    <trip id="veh47" type="veh_passenger" depart="134.12" departLane="best" departSpeed="max" from="117383606#0" to="43686032#1"/>
    <trip id="veh48" type="veh_passenger" depart="136.97" departLane="best" from="43686475#0" to="179966293#3"/>
    <trip id="veh49" type="veh_passenger" depart="139.83" departLane="best" from="179959895#8" to="866622590#1"/>
    <trip id="veh50" type="veh_passenger" depart="142.68" departLane="best" from="791262705#2" to="124048592#0"/>
    <trip id="veh51" type="veh_passenger" depart="145.53" departLane="best" from="24477647#3" to="10101244#1"/>
    <trip id="veh52" type="veh_passenger" depart="148.39" departLane="best" from="838513513#7" to="795563564#2"/>
    <trip id="veh53" type="veh_passenger" depart="151.24" departLane="best" from="124071117#1" to="-43685605#5"/>
    <trip id="veh54" type="veh_passenger" depart="154.09" departLane="best" from="378872530#6" to="851398548#1"/>
    <trip id="veh55" type="veh_passenger" depart="156.95" departLane="best" from="6065750#2" to="35220125#1"/>
    <trip id="veh56" type="veh_passenger" depart="159.80" departLane="best" from="628524165#0" to="316341996#13"/>
    <trip id="veh57" type="veh_passenger" depart="162.66" departLane="best" from="-1033009785#1" to="155423574"/>
    <trip id="veh58" type="veh_passenger" depart="165.51" departLane="best" departSpeed="max" from="-118183646" to="853628186#1"/>
    <trip id="veh59" type="veh_passenger" depart="168.36" departLane="best" departSpeed="max" from="792840322#0" to="68745284#5"/>
    <trip id="veh60" type="veh_passenger" depart="171.22" departLane="best" from="-130306724#1" to="-178757322#0"/>
    <trip id="veh61" type="veh_passenger" depart="174.07" departLane="best" from="792840319#1" to="865628910#6"/>
    <trip id="veh62" type="veh_passenger" depart="176.92" departLane="best" from="24379139#3" to="24553282#2"/>
    <trip id="veh64" type="veh_passenger" depart="182.63" departLane="best" from="211675614" to="370070638#1"/>
    <trip id="veh65" type="veh_passenger" depart="185.48" departLane="best" departSpeed="max" from="117277670#0" to="79854425#3"/>
    <trip id="veh66" type="veh_passenger" depart="188.34" departLane="best" from="171825747#2" to="106608613"/>
    <trip id="veh67" type="veh_passenger" depart="191.19" departLane="best" from="27679335#2" to="51551961#1"/>
    <trip id="veh68" type="veh_passenger" depart="194.05" departLane="best" from="96286313#0" to="-151734103#1"/>
    <trip id="veh69" type="veh_passenger" depart="196.90" departLane="best" from="1067256377" to="43784763#2"/>
    <trip id="veh70" type="veh_passenger" depart="199.75" departLane="best" departSpeed="max" from="179416931" to="27702963#3"/>
    <trip id="veh71" type="veh_passenger" depart="202.61" departLane="best" from="45702398#3" to="11540858#1"/>
    <trip id="veh72" type="veh_passenger" depart="205.46" departLane="best" from="106404842#1" to="1110881021#0"/>
    <trip id="veh75" type="veh_passenger" depart="214.02" departLane="best" departSpeed="max" from="74549912#0" to="35896891#2"/>
    <trip id="veh76" type="veh_passenger" depart="216.87" departLane="best" from="1076120335#1" to="45700114#1"/>
    <trip id="veh77" type="veh_passenger" depart="219.73" departLane="best" departSpeed="max" from="10501843#0" to="766227082"/>
    <trip id="veh78" type="veh_passenger" depart="222.58" departLane="best" departSpeed="max" from="850740824#0" to="376301502#3"/>
    <trip id="veh79" type="veh_passenger" depart="225.43" departLane="best" from="156792385#0" to="635421583#3"/>
    <trip id="veh82" type="veh_passenger" depart="234.00" departLane="best" from="506569625#0" to="45701924"/>
    <trip id="veh83" type="veh_passenger" depart="236.85" departLane="best" from="943229539#2" to="45702405#1"/>
    <trip id="veh84" type="veh_passenger" depart="239.70" departLane="best" from="161956258#5" to="158065204#2"/>
    <trip id="veh88" type="veh_passenger" depart="251.12" departLane="best" from="11540858#1" to="852348513#1"/>
    <trip id="veh90" type="veh_passenger" depart="256.82" departLane="best" from="991441096#0" to="158054251"/>
    <trip id="veh91" type="veh_passenger" depart="259.68" departLane="best" departSpeed="max" from="878148482" to="853201380#1"/>
    <trip id="veh92" type="veh_passenger" depart="262.53" departLane="best" departSpeed="max" from="68745284#0" to="-878148482"/>
    <trip id="veh93" type="veh_passenger" depart="265.39" departLane="best" from="229117761" to="107510804#0"/>
    <trip id="veh94" type="veh_passenger" depart="268.24" departLane="best" from="161956258#2" to="-178757322#0"/>
    <trip id="veh96" type="veh_passenger" depart="273.95" departLane="best" from="117277686" to="635421583#0"/>
    <trip id="veh97" type="veh_passenger" depart="276.80" departLane="best" from="179959896#1" to="179959890#1"/>
    <trip id="veh98" type="veh_passenger" depart="279.65" departLane="best" from="862094920" to="98905665#2"/>
    <trip id="veh99" type="veh_passenger" depart="282.51" departLane="best" from="29279895#2" to="506569625#18"/>
    <trip id="veh100" type="veh_passenger" depart="285.36" departLane="best" from="-766227082" to="145567872#1"/>
    <trip id="veh101" type="veh_passenger" depart="288.21" departLane="best" departSpeed="max" from="878148482" to="376306178#0"/>
    <trip id="veh102" type="veh_passenger" depart="291.07" departLane="best" departSpeed="max" from="27680215" to="6065750#2"/>
    <trip id="veh103" type="veh_passenger" depart="293.92" departLane="best" from="106404851#2" to="378871792#5"/>
    <trip id="veh104" type="veh_passenger" depart="296.77" departLane="best" from="24477700#3" to="766227092#2"/>
    <trip id="veh105" type="veh_passenger" depart="299.63" departLane="best" departSpeed="max" from="-791677502#1" to="876606356"/>
    <trip id="veh107" type="veh_passenger" depart="305.34" departLane="best" from="-376306165#3" to="45701926#5"/>
    <trip id="veh108" type="veh_passenger" depart="308.19" departLane="best" from="106407127#4" to="-629865687#2"/>
    <trip id="veh109" type="veh_passenger" depart="311.04" departLane="best" from="-80281778#1" to="118249702#4"/>
    <trip id="veh110" type="veh_passenger" depart="313.90" departLane="best" from="376306164#3" to="43323134#3"/>
    <trip id="veh111" type="veh_passenger" depart="316.75" departLane="best" from="170319770#3" to="378871792#4"/>
    <trip id="veh112" type="veh_passenger" depart="319.60" departLane="best" from="24592659#1" to="855353939#0"/>
    <trip id="veh113" type="veh_passenger" depart="322.46" departLane="best" from="10101245#0" to="501278997#2"/>
    <trip id="veh114" type="veh_passenger" depart="325.31" departLane="best" from="1080707534#0" to="171825747#0"/>
    <trip id="veh117" type="veh_passenger" depart="333.87" departLane="best" from="98905680" to="98905667"/>
    <trip id="veh119" type="veh_passenger" depart="339.58" departLane="best" departSpeed="max" from="792840324#0" to="820907203#6"/>
    <trip id="veh120" type="veh_passenger" depart="342.43" departLane="best" from="158198822#1" to="-856362001#0"/>
    <trip id="veh121" type="veh_passenger" depart="345.29" departLane="best" from="669904988#2" to="-478163095#1"/>
    <trip id="veh122" type="veh_passenger" depart="348.14" departLane="best" from="396337671#0" to="9779634#1"/>
    <trip id="veh123" type="veh_passenger" depart="350.99" departLane="best" from="43686032#0" to="1093786923#0"/>
    <trip id="veh124" type="veh_passenger" depart="353.85" departLane="best" from="659561485#0" to="-147522276#0"/>
    <trip id="veh125" type="veh_passenger" depart="356.70" departLane="best" from="43784763#2" to="859766852#2"/>
    <trip id="veh126" type="veh_passenger" depart="359.55" departLane="best" from="-515272984#1" to="-604420174"/>
    <trip id="veh127" type="veh_passenger" depart="362.41" departLane="best" from="1176866879#3" to="42780880#1"/>
    <trip id="veh128" type="veh_passenger" depart="365.26" departLane="best" from="478163095#0" to="106369731#7"/>
    <trip id="veh131" type="veh_passenger" depart="373.82" departLane="best" from="675971774#2" to="43914588#2"/>
    <trip id="veh133" type="veh_passenger" depart="379.53" departLane="best" departSpeed="max" from="-105125166" to="628584756#2"/>
    <trip id="veh134" type="veh_passenger" depart="382.38" departLane="best" from="43332286#2" to="120731888#3"/>
    <trip id="veh135" type="veh_passenger" depart="385.24" departLane="best" from="515272984#0" to="370070821#6"/>
    <trip id="veh137" type="veh_passenger" depart="390.94" departLane="best" departSpeed="max" from="-179959890#1" to="836066069"/>
    <trip id="veh138" type="veh_passenger" depart="393.80" departLane="best" from="837796140#4" to="352349425#1"/>
    <trip id="veh139" type="veh_passenger" depart="396.65" departLane="best" from="669904988#3" to="378871792#2"/>
    <trip id="veh140" type="veh_passenger" depart="399.50" departLane="best" from="130416692#2" to="838513513#6"/>
    <trip id="veh141" type="veh_passenger" depart="402.36" departLane="best" from="629865691#4" to="791677548#0"/>
    <trip id="veh142" type="veh_passenger" depart="405.21" departLane="best" from="836793927#2" to="106608557#0"/>
    <trip id="veh143" type="veh_passenger" depart="408.07" departLane="best" departSpeed="max" from="1149839754" to="478163094#0"/>
    <trip id="veh144" type="veh_passenger" depart="410.92" departLane="best" departSpeed="max" from="628535424#0" to="836089689#1"/>
    <trip id="veh145" type="veh_passenger" depart="413.77" departLane="best" from="-162195858#1" to="43323134#3"/>
    <trip id="veh146" type="veh_passenger" depart="416.63" departLane="best" from="-675513366#1" to="853628270#1"/>
    <trip id="veh148" type="veh_passenger" depart="422.33" departLane="best" departSpeed="max" from="147522894" to="853628270#1"/>
    <trip id="veh149" type="veh_passenger" depart="425.19" departLane="best" from="635421584#0" to="792840320#3"/>
    <trip id="veh150" type="veh_passenger" depart="428.04" departLane="best" from="639429751#2" to="-478458110#0"/>
    <trip id="veh151" type="veh_passenger" depart="430.89" departLane="best" from="628588818#0" to="513660218#1"/>
    <trip id="veh152" type="veh_passenger" depart="433.75" departLane="best" from="768635572#0" to="791262705#2"/>
    <trip id="veh153" type="veh_passenger" depart="436.60" departLane="best" from="105932121#1" to="669904988#16"/>
    <trip id="veh154" type="veh_passenger" depart="439.46" departLane="best" from="179966298#2" to="147524347#0"/>
    <trip id="veh155" type="veh_passenger" depart="442.31" departLane="best" from="629865691#0" to="1162743955"/>
    <trip id="veh157" type="veh_passenger" depart="448.02" departLane="best" from="147522277#0" to="792840322#3"/>
    <trip id="veh158" type="veh_passenger" depart="450.87" departLane="best" from="43548798#0" to="120728847#4"/>
    <trip id="veh159" type="veh_passenger" depart="453.72" departLane="best" from="92528786#6" to="31693623#5"/>
    <trip id="veh160" type="veh_passenger" depart="456.58" departLane="best" from="852028670#4" to="-604420174"/>
    <trip id="veh161" type="veh_passenger" depart="459.43" departLane="best" from="-158230279#0" to="10101244#1"/>
    <trip id="veh165" type="veh_passenger" depart="470.84" departLane="best" from="378871792#9" to="27679335#1"/>
    <trip id="veh166" type="veh_passenger" depart="473.70" departLane="best" from="160107396" to="376306175#5"/>
    <trip id="veh168" type="veh_passenger" depart="479.41" departLane="best" from="1034111837#0" to="853201360#0"/>
    <trip id="veh169" type="veh_passenger" depart="482.26" departLane="best" from="27679030#9" to="506569625#21"/>
    <trip id="veh170" type="veh_passenger" depart="485.11" departLane="best" from="-515272984#4" to="45701918"/>
    <trip id="veh171" type="veh_passenger" depart="487.97" departLane="best" from="515087189#1" to="316344356"/>
    <trip id="veh173" type="veh_passenger" depart="493.67" departLane="best" from="1360966910#2" to="74549952"/>
    <trip id="veh174" type="veh_passenger" depart="496.53" departLane="best" from="478164179#2" to="147522277#1"/>
    <trip id="veh175" type="veh_passenger" depart="499.38" departLane="best" from="130416694#2" to="179416929#6"/>
    <trip id="veh176" type="veh_passenger" depart="502.23" departLane="best" from="161956258#5" to="145567870#1"/>
    <trip id="veh177" type="veh_passenger" depart="505.09" departLane="best" from="-478163097#1" to="179959887#1"/>
    <trip id="veh178" type="veh_passenger" depart="507.94" departLane="best" from="852062315" to="45701935#5"/>
    <trip id="veh179" type="veh_passenger" depart="510.80" departLane="best" from="487533245#4" to="43322839#2"/>
    <trip id="veh180" type="veh_passenger" depart="513.65" departLane="best" from="124365496#0" to="35896891#3"/>
    <trip id="veh181" type="veh_passenger" depart="516.50" departLane="best" from="179416926#3" to="-376306179#1"/>
    <trip id="veh182" type="veh_passenger" depart="519.36" departLane="best" from="43686032#1" to="232462387#1"/>
    <trip id="veh184" type="veh_passenger" depart="525.06" departLane="best" from="211620275#2" to="838513562#3"/>
    <trip id="veh186" type="veh_passenger" depart="530.77" departLane="best" from="-233853533#7" to="27702745#3"/>
    <trip id="veh187" type="veh_passenger" depart="533.62" departLane="best" from="43322840#0" to="852278119#0"/>
    <trip id="veh188" type="veh_passenger" depart="536.48" departLane="best" from="659561485#4" to="6066209#0"/>
    <trip id="veh189" type="veh_passenger" depart="539.33" departLane="best" departSpeed="max" from="43836227" to="11540858#1"/>
    <trip id="veh190" type="veh_passenger" depart="542.18" departLane="best" from="-941033579#4" to="-147522281#4"/>
    <trip id="veh191" type="veh_passenger" depart="545.04" departLane="best" departSpeed="max" from="68745284#0" to="-370070821#1"/>
    <trip id="veh194" type="veh_passenger" depart="553.60" departLane="best" from="24415911#1" to="118183646"/>
    <trip id="veh195" type="veh_passenger" depart="556.45" departLane="best" from="43686032#4" to="-106608557#1"/>
    <trip id="veh196" type="veh_passenger" depart="559.31" departLane="best" from="585711619#4" to="628584752#4"/>
    <trip id="veh197" type="veh_passenger" depart="562.16" departLane="best" departSpeed="max" from="-43626382#3" to="-179959893#1"/>
    <trip id="veh198" type="veh_passenger" depart="565.01" departLane="best" from="24586100#4" to="-162195859#0"/>
    <trip id="veh199" type="veh_passenger" depart="567.87" departLane="best" departSpeed="max" from="1149839754" to="74549952"/>
    <trip id="veh201" type="veh_passenger" depart="573.57" departLane="best" from="43788666#0" to="9779635#1"/>
    <trip id="veh202" type="veh_passenger" depart="576.43" departLane="best" from="376306166#2" to="865628911#1"/>
    <trip id="veh204" type="veh_passenger" depart="582.14" departLane="best" from="478164179#0" to="26547001#0"/>
    <trip id="veh205" type="veh_passenger" depart="584.99" departLane="best" from="668329129#2" to="35896891#3"/>
    <trip id="veh206" type="veh_passenger" depart="587.84" departLane="best" from="-376306167#1" to="604420188#1"/>
    <trip id="veh207" type="veh_passenger" depart="590.70" departLane="best" from="211675607#2" to="120728847#0"/>
    <trip id="veh208" type="veh_passenger" depart="593.55" departLane="best" from="1120298150#0" to="43685511"/>
    <trip id="veh209" type="veh_passenger" depart="596.40" departLane="best" from="6066209#1" to="130386826"/>
    <trip id="veh212" type="veh_passenger" depart="604.96" departLane="best" from="1176866879#2" to="154746997#1"/>
    <trip id="veh213" type="veh_passenger" depart="607.82" departLane="best" from="27679360#1" to="-836793948#0"/>
    <trip id="veh214" type="veh_passenger" depart="610.67" departLane="best" from="106404848#1" to="45728980#4"/>
    <trip id="veh215" type="veh_passenger" depart="613.52" departLane="best" from="45728971#1" to="-232462387#5"/>
    <trip id="veh216" type="veh_passenger" depart="616.38" departLane="best" departSpeed="max" from="162195860#0" to="352349417"/>
    <trip id="veh217" type="veh_passenger" depart="619.23" departLane="best" departSpeed="max" from="170319770#0" to="106404853#1"/>
    <trip id="veh219" type="veh_passenger" depart="624.94" departLane="best" from="374796809#2" to="45728981#3"/>
    <trip id="veh221" type="veh_passenger" depart="630.65" departLane="best" departSpeed="max" from="159661118#0" to="-106608569"/>
    <trip id="veh223" type="veh_passenger" depart="636.35" departLane="best" from="68745294#0" to="866622589#0"/>
    <trip id="veh224" type="veh_passenger" depart="639.21" departLane="best" from="170319770#3" to="6065750#1"/>
    <trip id="veh228" type="veh_passenger" depart="650.62" departLane="best" from="147524347#2" to="45702379#1"/>
    <trip id="veh230" type="veh_passenger" depart="656.33" departLane="best" from="184573005#2" to="-639429824#1"/>
    <trip id="veh232" type="veh_passenger" depart="662.04" departLane="best" from="-161424711#2" to="374796809#6"/>
    <trip id="veh233" type="veh_passenger" depart="664.89" departLane="best" from="-119865671" to="43686032#4"/>
    <trip id="veh234" type="veh_passenger" depart="667.74" departLane="best" from="515272984#5" to="22889010#6"/>
    <trip id="veh235" type="veh_passenger" depart="670.60" departLane="best" from="158198822#2" to="162195859#2"/>
    <trip id="veh236" type="veh_passenger" depart="673.45" departLane="best" from="-104300907#4" to="156792387#0"/>
    <trip id="veh237" type="veh_passenger" depart="676.30" departLane="best" from="596093947#0" to="68745284#5"/>
    <trip id="veh238" type="veh_passenger" depart="679.16" departLane="best" from="11554925" to="41236007#1"/>
    <trip id="veh239" type="veh_passenger" depart="682.01" departLane="best" departSpeed="max" from="-118183646" to="35220125#1"/>
    <trip id="veh240" type="veh_passenger" depart="684.87" departLane="best" from="991441096#1" to="158230279#2"/>
    <trip id="veh241" type="veh_passenger" depart="687.72" departLane="best" from="43685605#6" to="635421572"/>
    <trip id="veh242" type="veh_passenger" depart="690.57" departLane="best" departSpeed="max" from="43686019#0" to="607493304#1"/>
    <trip id="veh243" type="veh_passenger" depart="693.43" departLane="best" from="853744677#0" to="233853533#4"/>
    <trip id="veh244" type="veh_passenger" depart="696.28" departLane="best" departSpeed="max" from="-118183646" to="-850818973"/>
    <trip id="veh245" type="veh_passenger" depart="699.13" departLane="best" from="478163095#0" to="45700114#3"/>
    <trip id="veh246" type="veh_passenger" depart="701.99" departLane="best" from="31693623#2" to="1101496865#1"/>
    <trip id="veh247" type="veh_passenger" depart="704.84" departLane="best" from="45727949#1" to="628584746#1"/>
    <trip id="veh248" type="veh_passenger" depart="707.69" departLane="best" from="839266025#4" to="42781712#1"/>
    <trip id="veh250" type="veh_passenger" depart="713.40" departLane="best" departSpeed="max" from="659561491" to="878148485#1"/>
    <trip id="veh251" type="veh_passenger" depart="716.25" departLane="best" departSpeed="max" from="-43626845#1" to="-151734103#1"/>
    <trip id="veh252" type="veh_passenger" depart="719.11" departLane="best" from="1360053162#0" to="45701935#5"/>
    <trip id="veh253" type="veh_passenger" depart="721.96" departLane="best" from="862094925#0" to="171825747#2"/>
    <trip id="veh254" type="veh_passenger" depart="724.82" departLane="best" from="478163091#2" to="229117761"/>
    <trip id="veh255" type="veh_passenger" depart="727.67" departLane="best" from="45702379#1" to="43548792#2"/>
    <trip id="veh257" type="veh_passenger" depart="733.38" departLane="best" from="68745284#3" to="420083533#0"/>
    <trip id="veh258" type="veh_passenger" depart="736.23" departLane="best" from="45702398#3" to="668277149#3"/>
    <trip id="veh261" type="veh_passenger" depart="744.79" departLane="best" from="24485294#3" to="158065206#3"/>
    <trip id="veh262" type="veh_passenger" depart="747.64" departLane="best" departSpeed="max" from="68745284#0" to="672520271#2"/>
    <trip id="veh263" type="veh_passenger" depart="750.50" departLane="best" departSpeed="max" from="-43626382#3" to="876606356"/>
    <trip id="veh264" type="veh_passenger" depart="753.35" departLane="best" from="45728980#2" to="179966293#6"/>
    <trip id="veh265" type="veh_passenger" depart="756.21" departLane="best" from="509283334#3" to="878148486"/>
    <trip id="veh266" type="veh_passenger" depart="759.06" departLane="best" from="1176866878" to="-668277145#1"/>
    <trip id="veh267" type="veh_passenger" depart="761.91" departLane="best" from="27679030#8" to="24493073#2"/>
    <trip id="veh269" type="veh_passenger" depart="767.62" departLane="best" from="117383606#1" to="766227086"/>
    <trip id="veh270" type="veh_passenger" depart="770.47" departLane="best" from="668329129#2" to="-43685605#4"/>
    <trip id="veh271" type="veh_passenger" depart="773.33" departLane="best" from="792840324#1" to="118183646"/>
    <trip id="veh272" type="veh_passenger" depart="776.18" departLane="best" from="184566431#6" to="42782186#1"/>
    <trip id="veh273" type="veh_passenger" depart="779.03" departLane="best" departSpeed="max" from="159661118#0" to="154746995#2"/>
    <trip id="veh274" type="veh_passenger" depart="781.89" departLane="best" from="68745284#5" to="102788184#1"/>
    <trip id="veh275" type="veh_passenger" depart="784.74" departLane="best" from="-104300907#5" to="642635702#1"/>
    <trip id="veh276" type="veh_passenger" depart="787.59" departLane="best" from="151472998#1" to="821656393#0"/>
    <trip id="veh277" type="veh_passenger" depart="790.45" departLane="best" from="45727959#1" to="129301668#3"/>
    <trip id="veh278" type="veh_passenger" depart="793.30" departLane="best" departSpeed="max" from="-106608581#3" to="865628910#8"/>
    <trip id="veh279" type="veh_passenger" depart="796.16" departLane="best" from="-240821221#0" to="506569625#28"/>
    <trip id="veh281" type="veh_passenger" depart="801.86" departLane="best" from="45702379#1" to="43784763#4"/>
    <trip id="veh282" type="veh_passenger" depart="804.72" departLane="best" from="233853533#10" to="639429765#1"/>
    <trip id="veh283" type="veh_passenger" depart="807.57" departLane="best" from="-370073401#4" to="1119334283#3"/>
    <trip id="veh284" type="veh_passenger" depart="810.42" departLane="best" departSpeed="max" from="45702398#0" to="147524347#2"/>
    <trip id="veh285" type="veh_passenger" depart="813.28" departLane="best" from="374796807#2" to="24415928#4"/>
    <trip id="veh286" type="veh_passenger" depart="816.13" departLane="best" from="24735491#3" to="179959894#1"/>
    <trip id="veh287" type="veh_passenger" depart="818.98" departLane="best" from="541630966#0" to="157518482#1"/>
    <trip id="veh288" type="veh_passenger" depart="821.84" departLane="best" from="45727959#3" to="124079497#2"/>
    <trip id="veh289" type="veh_passenger" depart="824.69" departLane="best" from="11540871#1" to="629865688#0"/>