<?xml version="1.0" encoding="UTF-8"?>

<!-- generated on 2025-02-25 19:24:17.935128 by osmWebWizard.py UNKNOWN
<configuration>
    <net-file value="/Users/victordiazb/Sumo/2025-02-25-19-22-51/osm.net.xml.gz"/>
    <output-trip-file value="/Users/victordiazb/Sumo/2025-02-25-19-22-51/osm.pedestrian.trips.xml"/>
    <route-file value="/Users/victordiazb/Sumo/2025-02-25-19-22-51/osm.pedestrian.rou.xml"/>
    <pedestrians value="True"/>
    <prefix value="ped"/>
    <vehicle-class value="pedestrian"/>
    <fringe-factor value="1"/>
    <max-distance value="2000.0"/>
    <insertion-density value="15.0"/>
</configuration>
-->

<!-- generated on 2025-02-25 19:24:09 by Eclipse SUMO duarouter Version 1.22.0
<duarouterConfiguration xmlns:xsi="http://www.w3.org/2001/XMLSchema-instance" xsi:noNamespaceSchemaLocation="http://sumo.dlr.de/xsd/duarouterConfiguration.xsd">

    <input>
        <net-file value="/Users/victordiazb/Sumo/2025-02-25-19-22-51/osm.net.xml.gz"/>
        <route-files value="/Users/victordiazb/Sumo/2025-02-25-19-22-51/osm.pedestrian.trips.xml"/>
    </input>

    <output>
        <output-file value="/Users/victordiazb/Sumo/2025-02-25-19-22-51/osm.pedestrian.rou.xml"/>
        <alternatives-output value="NUL"/>
    </output>

    <time>
        <begin value="0.0"/>
        <end value="3600.0"/>
    </time>

    <report>
        <no-warnings value="true"/>
        <ignore-errors value="true"/>
        <no-step-log value="true"/>
    </report>

</duarouterConfiguration>
-->

<routes xmlns:xsi="http://www.w3.org/2001/XMLSchema-instance" xsi:noNamespaceSchemaLocation="http://sumo.dlr.de/xsd/routes_file.xsd">
    <vType id="ped_pedestrian" vClass="pedestrian"/>
    <person id="ped0" type="ped_pedestrian" depart="0.00">
        <walk edges="841282822#1 880917455#0 158844183 118249702#4 -118249702#3 880917453 158844186 -118249728#1 841671097#1 841671096#1 841671096#2 841671111#0 841671111#1 604420169#1 841671118#0 841671118#1 841671119 659937489#4 659937489#3 659937489#2 659937489#1 659937489#0 604420182 604420186#1 604420183#0 614288545 614288546#1 614288547#5 614288547#4 836089675#1 836089676#0 836089668#1 836089668#2 836089670#1 836089670#0 836089657#2 836089667#0 836089667#1 598060653#2 598060653#1 598060653#0 598060652#1 598060652#0 762689788#1 762689788#0 598060649#1 598060649#0 598060641#3 598060641#4 598060641#5 598060641#6 598060647#1 598060648#1 598060648#2 598060648#3 598060648#4 598060646#1 850818951#3 598060645#1 598060644#0 598060644#1 762689776 598060642#0 598060642#1 588751787#2 588751787#1 588751787#0 588751786#1 588751788#5 588751788#4 588751788#3 588751788#2 588751788#1 585475694#2 585475694#1 585475694#0 1360966918#5 713818546#1 1360966918#3 794760747#1 1105636453#0 1105636448 713818549#1 228950073#0 228950079#3 228950079#4 228950079#5 228950079#6 794760686#1 794760685#1 794760688#3 794760687#0 794760679#1 794760679#0 794760670#2 794773144#0 794773144#1 794773129#4 794773139#1 794773139#0 794773136#3 794773135 794773130 794773150#0 794773150#1 794760718#0 -444147959#4 -444147959#6"/>
    </person>
    <person id="ped2" type="ped_pedestrian" depart="2.38">
        <walk edges="853201369 853201354#3 853201388 853201389#1 853201393#4 853201393#5 853628207#0 853628208#1 853628201#1 853628201#0 853628193 853628192#1 853628192#0 853628191#2 853628191#1 853628184 853628187 853628177#0 853628178 1123454981#1 853628162 853628172#3 853628172#2 853628172#1 853628167 853628168#1 853628168#2 850391932#0"/>
    </person>
    <person id="ped3" type="ped_pedestrian" depart="3.57">
        <walk edges="870310188#12 870310188#11 870310188#10 870310188#9 852062322#2 152354503#0 621556309#2 621556309#1 853628276#0 853628250#2 853628275#1 853628275#0 853628161#1 853628161#2 853628173#1 853628168#0 853628167 853628172#1 853628172#2 853628172#3 853628162 1123454981#1 853628178 853628177#0 853628187 853628184 853628191#1 853628191#2 853628192#0 853628192#1 853628193 853628200#1 853201418#3 854133661#0 852348510#0 852311418#8 852311425#0 852311425#1 852311424#5 852311424#6 852311424#7 852311424#8 852311424#9 852311424#10 852311424#11 852311424#12 852311424#13 852311424#14 852311424#15 1118640597#0 1118640601#0"/>
    </person>
    <person id="ped4" type="ped_pedestrian" depart="4.76">
        <walk edges="791070562#4 791677497#1 791677498#1 -228950072#5 791070561#0 791070560#2 -791070604#0 791070584 791070573 791070574#1 791070575#1 791070577 791070582#0 791070576#0 791070601#0 791070601#1 791070568#2 791070569#0 791070569#1 791070570#3 791070570#2 791070570#1 791070570#0 793172581#0 793172581#1 793172580#0 793172580#1 793172582#0 793172582#1 793172585#0 793172585#1 793172585#2 793172651 793172652#1 838953192#0 838953193 838953178#17 838953178#16 838953178#15 838953178#14 838953178#13 853201347 853201348#1 853201348#2 852278140#0 852278140#6 852278152#0 853201344 852278151#3 852311414 854133658 852311413#4 852311413#3 852311421#0 852311421#1 852311418#1 852311418#0 852348510#0 854133652 852348512#1 852348512#2 852348512#3 852348512#4 852348512#5 852348512#6 852348512#7 852348512#8 852348512#9 852348512#10 852348512#11 852348512#12 854133670#0 585720756#0 860035072#9 877409259 877409260#1 854133677#20 635536171#2 156932696#1 28238528 316341986 316341987 106407135#1 106407135#0 624265057 589472313#2 -624265056#1"/>
    </person>
    <person id="ped5" type="ped_pedestrian" depart="5.95">
        <walk edges="333484038#0 155434785 841671069#1 614288540 124082253#3 614288543#1 614288525 598060668#1 614288547#6 614288547#5 836089673#1 604420184#1 856684513#0 856684523#1 856684523#0 856684520#2 856684520#3 856684524#0 856684524#1 856684525#1 856684525#0 856684528#0 856684528#1 856684531#1 856684531#0 762689785#7 762689785#6 762689785#5 762689785#4 762689787#0 762689787#1 762689788#11 762689788#12 762689789#0 762689789#1 762689794#3 762689794#2 857161863#1 857161863#0 857161862#0 857161861#0 857161870#0 857161870#1 857161864#1 615406366#0 615406366#1 615406368#0 615406368#1 615406368#2 615406368#3 857161781#1 851451436#1 851451411#14 851451411#15 851451411#16 851451411#17 851451445 851451444#1 851451447#3 851451447#2 851451447#1 838181247#1 838181247#0 838181240#5 838181240#6 838181249#0 837796129 791677556#3 791677556#4 838181281#0 838181281#1 791677554#1 838181285#0 838181267 838181282#5 838181282#6 838181290#0 793172594 337822445 986758307#0 986758311 43683180#12 43683180#11 43683180#10 43683180#9 43683180#8 43683180#7 43683180#6 43683180#5 43683180#4 43683180#3 43683180#2 793188499#4 793188497#4 793188511#9"/>
    </person>
    <person id="ped6" type="ped_pedestrian" depart="7.14">
        <walk edges="-515272983#4 515272983#2 515272983#1 598060662#1 598060669#0 598060669#1 598060669#2 598060673#0 228950077#0"/>
    </person>
    <person id="ped7" type="ped_pedestrian" depart="8.33">
        <walk edges="850028723#1 850028722#1 868559924 821362492#12 821362492#11 821362492#10 821362497#1"/>
    </person>
    <person id="ped8" type="ped_pedestrian" depart="9.52">
        <walk edges="337825259#5 337825261 852648323#1 857161806 857161799#13 857161799#14 857161799#15 857161807 857161799#18 857161799#19 857161799#20 857161799#21 857161799#22 857161799#23 857161799#24 851398569#1 851398568 851451411#8 851451411#9 851451411#10 851451411#11 851451411#12 851451411#13 851451411#14 851451411#15 851451438#1 851451440 591578486#8 591578486#9 851485036#1 851485039#1 851485040#1 851485051 837796156 837796151#6 837796161 837796147#1 837796146 837796106#2 837796106#1 837796097#1 837796098 837796094#1 837796096#1 837796092#3 837796093#0"/>
    </person>
    <person id="ped9" type="ped_pedestrian" depart="10.71">
        <walk edges="856684608#1 856684608#0 856684591#3 856684591#4 856684601#0 856684590#1 856684589#6 218338727 856684589#10 856684589#9 856684585#1 879204265#0 841671128#1 841671123#1 841671122 659937489#2 659937489#3 659937489#4 841671119 841671118#1 841671118#0 604420169#1 841671111#1 841671111#0 841671096#2 841671096#1 841671097#1 -118249728#1 158844186 880917453 -118249702#2"/>
    </person>
    <person id="ped10" type="ped_pedestrian" depart="11.90">
        <walk edges="856684592#2 856684594 856684599#1 856684599#0 856684596#1 856684596#2 856684597#1 856684597#0 856684595#1 856684609#2 860035077#1 860035078#0 860035076#1 856684558#2 856684558#1 856684612#1 856684612#0 856684556#5 856684565#1 856684552#1 857161827#9 857161891#1 857161891#0 857161883#1 27702808#1 24586111#1 615406381#0 615406379#5 615406379#6 615406379#7 615406370#1 615406370#0 857161862#1 857161862#0 857161861#0 857161870#0 857161870#1 857161864#1 615406366#0 615406366#1 615406368#0 615406368#1 615406368#2 615406368#3 857161781#1 851451436#1 851451411#14 851451411#15 851451411#16 851451411#17 851451445 851451444#1 851451447#4 851451452"/>
    </person>
    <person id="ped11" type="ped_pedestrian" depart="13.09">
        <walk edges="629839838#0 629839833#12 629839833#13 629839833#14 629839833#15 629839833#16 779904874#0 821362479#1 821362480 821362490#0 821362490#1 821362492#7 821362492#8 821362492#9 821362492#10 821362492#11 821362492#12 821362492#13 821362496#0 868559928#1 850028758#7 850028758#6 850028758#5 850028758#4 850028765#1 105932130#0 656578886#16 656578886#17 850103084 853256048 853256030#1 853256056 853256059 853256029#1 853256079 853256080#1 853256090#0 853628234#1 853628225#1 853628158#0 853628222#1 853628219#1 853628159#1 853628216#1 853628217 853628160#2 853628160#3 853628160#4 853628180#1 853628177#0 853628178 1123454981#1 853628162 853628172#3 853628172#2 853628172#1 853628167 853628168#1 853628168#2 850391932#0 156043357#2"/>
    </person>
    <person id="ped12" type="ped_pedestrian" depart="14.28">
        <walk edges="879204285 879204286 879204282#3 879204282#4 879204282#5 879204282#6 879204282#7 879204282#8 879204294#1 879204282#9 879204294#0 877473386#1 877473386#0 876564565#0 860035059#9 860035059#10 860035059#11 860035061 860035062#1 157518467#0 157518467#1 635951664#1 635951664#2 45701920#2 45701920#1 860035094#1 154863324#2 154863324#1 860035085#7 860035085#6 860035087#0 860035048#1 860035037 585758279#3 585758279#2 585758279#1 585758279#0 6065724#1 6065724#0 152364470#4 124067299 860035033#0 852676629#12 628584749#2 628584749#1"/>
    </person>
    <person id="ped13" type="ped_pedestrian" depart="15.47">
        <walk edges="112022768#4 537209509#0 537209509#1 112022771#2 766574052#0 182390673#7 -537208568#0 766574055#7 766574072 766574071#1 821362474 821362468#1 821362468#0 821362467#0 821362467#1 821362466 821362464#0 821362464#1 821362465#0 112022767 821362485 821362487#0 821362487#1 821362489#0 850103087#1 850103030#1 850103043#6 850103045#1 850103101#1 850103100 656578886#3 656578887#0 656578887#1 656578887#2 656578886#23 853256067#1 853256066 853256031#2 853256068#1 853256068#0 853256032#2 853256032#1 853256038#1 853256043#1 853256044#3 1122662277"/>
    </person>
    <person id="ped14" type="ped_pedestrian" depart="16.66">
        <walk edges="860035072#2 438467560 438467562 438467561 438467559 6065736#3 6065736#2 6065736#1 6065736#0 39703383#0 585720762#2 585720762#1 585720764 585720763#1 585720763#0 30155491 1123170688 585390448 1116894202 124067307 160091184#2 160091184#1 160091184#0 850740821#1 852648314#16 852648314#15 852648327#2 852648327#1 852648327#0 852348530#2 -628584753#2 852348544#0 852311424#25 852311424#24 852311424#23 852348543 591578488#1 852028672#0 852028672#1 852028672#2 852028672#3 852028656#1 838181262 838181265#2 124051309 838181265#13 838181269#1 838181268#2 838181268#1 838181285#0 791677554#1 838181281#1"/>
    </person>
    <person id="ped15" type="ped_pedestrian" depart="17.85">
        <walk edges="856684598#1 856684598#0 856684595#2 856684595#1 856684609#2 860035077#1 860035078#0 124071113#2 45701926#1 45701926#2 45701926#3 45701926#4 45701926#5 856684562#0 856684562#1 585720753#2 585720753#1 585720753#0 856684563 856684564#1 856684555#5 585720754#1 585720754#2 585720754#3 857161827#4 857161827#3 857161827#2 857161827#1 857161899#1 857161899#0 857161826#1 857161898#1 857161898#0 857161811#5 857161811#4 857161811#3 857161811#2 857161811#1 857161813#1 857161814#0 857161810#1 857161848#1 857161848#0 857161804#2 857161799#21 857161808 852648317#1 852648314#6 852648314#5 852648314#4 852648314#3"/>
    </person>
    <person id="ped16" type="ped_pedestrian" depart="19.04">
        <walk edges="820907201#1 820907201#0 868559930#0 868559930#1 868559930#2 868559930#3 233850693#0 820907203#4 820907203#5 820907203#6 43914488#1 850391927#11 850391927#12 850391927#13 850391927#14 850391927#15 850391927#16 870310190 852062322#0 852062319#5 852062319#4 852062319#3 852062319#2 852062319#1 852062319#0 854133675#6 854133679 854133678#1 854133678#0 854133676 854133677#17 854133677#18 854133677#19 854133677#20 854133677#21 854133677#22 854133677#23 854133677#24 877409251#1 877409250 27674171#1 24567264#0 860035072#3 860035072#2 860035072#1 860035071#1 860035071#0 860035070 860035069#1 860035069#0 860035066#1 860035066#0 860035065#1 860035065#0 860035068 860035067#1 860035067#0 860035059#11 860035059#10 860035059#9 876564565#0 877473386#0 877473386#1 879204294#0 879204282#9 879204294#1 879204282#8 879204282#7 879204282#6 879204282#5 879204282#4 879204282#3 879204282#2 879204282#1 879204281#1 879204281#0 879204278#1 -41236011#0 -41236011#1 -197145017 876564535 876564533#0 876564534#0 876564534#1 876564531#2 876564532 876564529 880917446 880917487#1 880917487#0"/>
    </person>
    <person id="ped17" type="ped_pedestrian" depart="20.23">
        <walk edges="665705211#0 664931742#3 664931742#2 665705210#1 665705210#0 665705208#5 638497792#2 836793914#0 665705209#4 665705209#3 665705209#2 836793929#1 836793930 836793922#1 836793922#2 836793922#3 837056439#0 837056439#1 598060672#5 -941033580 837056461#0 229338785 228950075#0 228950077#1 598060673#0 598060669#2 598060669#1 636267383#0 636267383#1 598060648#1 598060647#1 598060641#6 598060641#5 598060641#4 598060641#3 598060649#0 598060649#1 762689788#0 762689788#1 598060652#0 598060652#1 598060653#0 598060653#1 598060653#2 836089667#1"/>
    </person>
    <person id="ped18" type="ped_pedestrian" depart="21.42">
        <walk edges="857161858#1 615406368#3 857161781#1 851451436#1 851451411#14 851451411#15 851451411#16 851451411#17 851451445 851451444#1 851451447#4 851451452 851451451#1 852010801#4 852010801#3 852010801#2 852010801#1 838181259#1 852028656#1 852028661#10 852028661#9 852028661#8 852278126#1 852278124#0 852278124#6 852278124#5 852278136#1 852278140#2 852278140#1 853201348#2 853201348#1 838953190#0"/>
    </person>
    <person id="ped19" type="ped_pedestrian" depart="22.61">
        <walk edges="852010803 851398539#1 851398538#3 851398538#2 851398538#0 851398538#18 851398538#17 851398538#16 851398538#15 851398566#1 857161801#1 857161803 857161804#0 857161804#1 857161848#0 857161848#1 857161810#1 857161814#0 857161813#1 857161811#1 857161811#2 857161811#3 857161811#4 857161811#5 857161898#0 857161898#1 857161826#1 857161899#0 857161899#1 857161827#1 857161827#2 857161827#3 857161827#4 585720754#3 585720754#2 585720754#1 856684555#5 856684564#1 856684563 585720753#0 585720753#1 585720753#2 856684562#1 856684562#0 45701926#5 45701926#4 45701926#3 45701926#2 45701926#1 124071113#2 860035078#0 856684589#3 856684589#4 856684589#5 218338727 856684589#10 856684589#9 856684585#1 879204265#0 841671128#1 841671123#1 841671122 659937489#2 659937489#3 659937489#4 841671119 841671118#1 841671118#0 604420169#1 841671111#1 841671111#0 841671096#2 841671096#1 841671097#1 -118249728#1 158844186 880917453 -118249702#3 118249702#4 158844183 880917455#0 -841282822#0"/>
    </person>
    <person id="ped20" type="ped_pedestrian" depart="23.80">
        <walk edges="373785473#0 373785473#1 373785473#2 129301676#6 129301676#5 129301676#4 129301676#3 129301676#2 129301676#1 437516263#0 202438590#0 202438590#1 853279212#0 853279212#1 853279212#2 870310202#1 870310203#1 870310204 870310188#2 870310188#3 870310188#4 870310188#5 870310188#6 870310188#7 870310191#2 852062322#0 852062319#5 852062319#4 852062319#3 852062319#2 852062319#1 852062319#0 854133675#6 854133679 854133678#1 854133678#0 854133676 854133677#17 854133677#18 854133677#19 854133677#20 854133677#21 854133677#22 854133677#23 854133677#24 877409251#1 877409250 27674171#1 24567264#0 860035072#3 860035072#2 27674103#1 27674103#0 585758280#1 585758281#0 585758281#1"/>
    </person>
    <person id="ped21" type="ped_pedestrian" depart="25.00">
        <walk edges="1105636442#2 1105735466#1 1117599442#0 147522282 794760747#0 1092671603 837056488#2 1034445027 -158065204#3 1360966918#5 585475694#0 585475694#1 585475694#2 588751788#1 588751788#2 588751788#3 598060678 713804024#0 713804025#1 850818993#2 850818998 850818985#0 591578486#13 591578486#0 591578486#1 591578486#2 615406390 762689796#0 857161783#1 851451411#12 851451411#11 851451411#10 851451411#9 851451411#8 851398568 851398569#1 857161799#24 857161799#23 857161799#22 857161799#21 857161799#20 857161799#19 857161799#18 857161807 857161799#15 857161799#14 857161799#13 857161799#12 857161799#11 857161799#10 857161799#9 857161799#8 857161799#7 857161799#6 857161799#5 857161799#4 857161799#3 857161799#2 857161799#1 124069134#3 585720759#1 585720759#0 6066194 124069146 585720762#0 585720762#1 585720762#2 39703383#0 39703383#1 39703383#2 39703383#3 39703383#4 39703383#5 156819358#0 156819358#1 877409253 877409254#1 156830689 316341986 -42781712#1 -42781712#0 42781715#4 42781715#3 42781715#2 42781715#1 42781715#0"/>
    </person>
    <person id="ped22" type="ped_pedestrian" depart="26.19">
        <walk edges="118183615#1 -118183615#0 885474277#2 885474277#1 885474284 885474285#1 885474285#0 870690829#5 870690829#4 870690829#3 870690829#2 870690828#1 870690828#0 870690815#7 870690815#6 870690821#0 870690831#1 854133677#10 854133677#11 854133677#13 854133677#14 854133677#15 854133677#16 854133677#17 854133673#1 877409262 585720756#0 854133670#0 852348512#12 852348512#11 852348512#10 852348512#9 852348512#8 852348512#7 124052625#19 124052625#18 124052625#17 124052625#16 124052625#15 124052625#14 124052625#13 124052625#12 124052625#11 124052625#10 124052625#9 124052625#8 124052625#7 124052625#6 124052625#5 852648327#1 852648327#0 852348530#2 -628584753#2 852348544#0 852311424#25 852311424#24 851398579#1 851398580 851398538#6 851398538#5 851398538#4 851398539#1 852010803 852010801#5 852010801#4 852010801#3 851451448#1 851451449 851451447#6 838181247#1 838181247#0 838181240#4 838181240#3 838181240#2 838181240#1 838181242#1 837796143 758683602#2 758683602#1 758683600#1 758683600#0 -43785081#1 -43785081#0 837796092#0 837796110#1 794760712#0 794760711#1 794760713#1 794760677#1 558490499#1"/>
    </person>
    <person id="ped23" type="ped_pedestrian" depart="27.38">
        <walk edges="841243415#0 841243420#0 841243420#1 841243437#2 841243437#1 841243437#0 158723823 158723795#0 158723795#2 -158723795#4 880917478 880917479 158844185#1 158844185#0 118249692 643308205#3 880917487#1 880917446 876564529 876564532 876564531#2 876564534#1 876564534#0 876564533#0 876564535 -197145017 -41236011#1 -41236011#0 879204278#1 879204281#0 879204281#1 879204282#1 879204282#2 879204282#3 879204282#4 879204282#5 879204282#6 879204282#7 879204282#8 879204294#1 879204282#9 879204294#0 877473386#1 877473386#0 876564565#0 860035059#9 860035059#10 860035059#11 860035067#0 860035067#1 860035068 860035065#0 860035065#1 860035066#0 860035066#1 860035069#0 860035069#1 860035070 860035071#0 860035071#1 860035072#1 860035072#2 860035072#3 24567264#0 27674171#1 860035072#6 860035072#7 860035072#8 860035072#9 585720756#0 854133670#0 854133670#1 854133671#1 854133668#6 43365415#1 853628271#6 853628272#1 853628269#1 853628268#1 853628268#0 853628161#0 853628161#1 853628163#0 853628166#1 853628166#0 1122662277 853256044#3 853256043#1 853256038#1 853256032#0 853256070#0 853256070#1 853256031#0 853256045#1 850103064#0 656578886#20"/>
    </person>
    <person id="ped24" type="ped_pedestrian" depart="28.57">
        <walk edges="659937495#1 659937494#0 659937494#1 604733206#1 836066073#1 614288527 614288540 124082253#3 614288543#1 614288525 598060668#1 614288547#6 614288547#5 836089673#1 604420184#1 856684513#0 856684523#1 856684523#0 856684520#2 856684520#3 856684524#0 856684524#1 856684525#1 856684525#0 856684528#0 856684528#1 856684529#1 856684530#0 856684530#1 856684533#0 856684533#1 856684536#1 856684536#0 856684535#1 856684535#0 856684534#5 856684534#4 856684548#1 856684547 856684550#1 856684552#0 856684552#1 856684555#6 856684555#5 585720754#1 585720754#2 585720754#3 857161827#4 857161827#3 24582786#1 45702395#0 852676633#1 852676632#1 852676631 852676629#9 852676629#10 852676629#11 852676629#12 161424706#12 161424706#11 161424706#10 161424706#9 161424706#8 161424706#7 161424706#6 161424706#5 161424706#4 161424706#3 159495746 27674217#0"/>
    </person>
    <person id="ped25" type="ped_pedestrian" depart="29.76">
        <walk edges="501279008#2 501279008#1 986793291 793188491#2 43683179#14 43683179#15 43683179#16 43683179#17 43683179#18 501279014#1 793188481#12 793188481#13 986758307#1 337822445 793172594 838181290#0 838181282#6 838181282#5 838181267 838181268#1 838181268#2 838181269#1 838181265#13 124051309 838181265#2 838181262 852028656#1 852028672#3 852028672#2 852028672#1 852028672#0 591578488#1 852348543 852311424#23 852311424#24 852311424#25 852348544#0 -628584753#2 852348530#2 852648327#0 852648327#1 852648327#2 852648314#14 852648326#1 852676629#3 628584749#0 628584749#1 628584749#2 852676629#12 860035033#0 124067299 152364470#4 6065724#0 6065724#1 585758279#0 585758279#1 585758279#2 585758279#3 860035037 124074963 860035085#3 860035080#0 860035080#1 860035079#2 860035069#1 876564568#1 876564568#0 877473384#0 877473384#1"/>
    </person>
    <person id="ped26" type="ped_pedestrian" depart="30.95">
        <walk edges="850028711#5 850028708#0 850028708#1 850028738#4 850028738#5 629865681#0 850028739#1 853201338#1 853201338#2 853201338#3 629865685#1 629865685#0 852278140#0 852278140#1 852278144#1 838181276#1 838181275 838513542#3 147521541 838513546 838513545 838513542#6 838513568#0 838513541 838513569#1 838513560 838513548 838513533#3"/>
    </person>
    <person id="ped27" type="ped_pedestrian" depart="32.14">
        <walk edges="158723848 158723795#2 -158723795#4 880917478 880917479 158844185#1 158844185#0 118249692 643308205#3 880917487#1 880917446 876564529 876564532 876564531#2 876564531#1 876564531#0 841671111#0 841671111#1 604420169#1 841671118#0 841671118#1 841671119 659937489#4 659937489#3 659937489#2 841671122 841671123#1 841671128#1 879204265#0 856684585#1 856684589#9 856684589#10 218338727 856684589#5 856684589#4 856684589#3 860035078#0 124071113#2 45701926#1 45701926#2 45701926#3 45701926#4 45701926#5 856684562#0 856684562#1 585720753#2 585720753#1 585720753#0 856684563 856684564#1 856684555#5 585720754#1 585720754#2 585720754#3 857161827#4 857161827#3 24582786#1 45702395#0 852676633#1 852676632#1 852676631 852676629#8 852676629#7 852648323#1 852648323#0 852648314#11 852648314#12"/>
    </person>
    <person id="ped28" type="ped_pedestrian" depart="33.33">
        <walk edges="157520952#6 877409284#0 854133677#25 877409251#1 877409250 27674171#1 24567264#1 27674178#0 152364480#0 152364478#3 152364478#4 585720765#3 39703383#2 39703383#1 39703383#0 585720762#2 585720762#1 585720762#0 124069146 6066194 585720759#0 585720759#1 124069134#3 857161799#1 857161799#2 857161799#3 857161799#4 857161799#5 857161799#6 857161799#7 857161799#8 857161799#9 857161799#10 857161799#11 857161799#12 857161799#13 857161799#14 857161799#15 857161807 857161799#18 857161799#19 857161799#20 857161799#21 857161799#22 857161799#23 857161799#24 851398569#1 851398568 851451411#8 851451411#9 851451411#10 851451411#11 851451411#12 857161783#1 762689796#0 615406390 591578486#2 591578483#1 850818982 850818981#3 850818979#0 850818977#0 850818969#2 850818969#1 850818969#0 850818964#1 850818952#0 850818952#1 850818953#1 850818963 713818551 837056474#1 837056473 598060669#2 598060673#0 228950077#1 228950075#0 229338785 837056461#0 -941033580 598060672#5 836793947#1 836793953 836793952 662018746#5 836368001#1 836368002 662018745#3 836367994#4 836367994#2 836367994#1 836367994#0 762085225#1 762085225#2 762085225#3 762085233 762085232#1 762085228#1 771024260 771024258#1 771024250#0 708498158#12 762085234#0 819086283#0 665705217#4"/>
    </person>
    <person id="ped29" type="ped_pedestrian" depart="34.52">
        <walk edges="893457086#0 1204404591#0 1204404591#1 1204404591#2 1204404591#3 1204404591#4 1204404591#5 1204404591#6 1204404591#7 1204404591#8 1204404591#9 1204404591#10 1204404591#11 659561487 708485337#2 708485337#0 659561495#1 762085232#1 762085233 762085225#3 762085225#2 762085225#1 836367994#0 836367994#1 836367994#2 836367994#4 662018745#3 836368002 836368001#1 662018746#5 836793952 836793953 836793947#1 598060672#5 -941033580 837056461#0 229338785 228950075#0 228950077#1 598060673#0 598060669#2 598060669#1 598060669#0 598060662#1 598060661 598060663 662018739#1 598060655#0 598060655#1 598060655#2 588751782#0 588751782#1 588751793#1 601338860#1 659937499#3 588751795 588751797#0 588751798#1 828132976#1 659937490#7 659937490#6 841671030#0"/>
    </person>
    <person id="ped30" type="ped_pedestrian" depart="35.71">
        <walk edges="836089687#0 836089683#1 836089693#1 836089693#0 598060653#4 598060653#3 598060653#2 598060653#1 598060653#0 598060652#1 598060652#0 762689788#1 762689788#0 598060649#1 598060649#0 598060641#3 598060641#4 598060641#5 43784749#0 850818956#0 850818959#1 850818959#0 850818955#3 850818961#0 850818961#1 850818952#4 585475689 850818966#2 850818966#1 850818968#1 850818967"/>
    </person>
    <person id="ped31" type="ped_pedestrian" depart="36.90">
        <walk edges="860035051#3 860035055#1 860035055#0 856684555#2 159492546#0 159492546#1 159492546#2 857161827#3 24582786#1 45702395#0 852676633#1 852676632#1 852676631 852676629#9 852676629#10 852676629#11 852676629#12 161424706#12 161424706#11 161424706#10 161424706#9 161424706#8 161424706#7 161424706#6 161424706#5 161424706#4 161424706#3 161424706#2 161424706#1 161424706#0 585720756#1 854133670#0 854133670#1 854133671#1 854133668#6 43365415#1 43365415#0 853628271#4 853628271#3 853628271#2 853628271#1 853628273#1"/>
    </person>
    <person id="ped32" type="ped_pedestrian" depart="38.09">
        <walk edges="374796816#0 836793900 836793899#1 836793894#1 836793908 836793909#1 836793909#2 836793917#3 836793917#2 836793921#1 836793933 836793922#2 836793922#3 837056439#0 837056439#1 598060672#5 -941033580 837056461#0 229338785 228950075#0 228950077#1 598060673#0 598060669#2 598060669#1 636267383#0 636267383#1 598060648#1 598060647#1 598060641#6 598060641#5 598060641#4 598060641#3 598060649#0 598060649#1 762689788#0 762689788#1 598060652#0 598060652#1 598060653#0 598060653#1 598060653#2 836089667#1 836089667#0 836089657#2 836089670#0 836089670#1 836089668#2 836089668#1 836089676#0 836089675#1 614288547#4 614288547#5 614288546#1 614288545 604420183#0 604420186#1 604420182 659937489#0 659937489#1 659937489#2 659937489#3 659937489#4 841671119 841671118#1 841671118#0 604420169#1 841671111#1 841671111#0 876564531#0 876564531#1 876564531#2 876564532 876564529 880917446 880917487#1 643308205#3 643308205#4 643308205#5 -636300128#2 636300128#1 -636300128#0"/>
    </person>
    <person id="ped33" type="ped_pedestrian" depart="39.28">
        <walk edges="604420166#2 604420181 604420182 604420186#1 604420183#0 604420183#1 604420183#2 604420184#1 856684513#0 856684523#1 856684523#0 856684520#2 856684520#3 856684524#0 856684524#1 856684525#1 856684525#0 856684528#0 856684528#1 856684531#1 856684531#0 762689785#7 762689785#6 762689785#5 762689785#4 762689787#0 762689787#1 762689788#11 762689788#12 762689789#0 762689789#1 762689794#3 762689794#2 857161863#1 857161863#0 857161862#0 857161861#0 857161870#0 857161870#1 857161864#1 615406366#0 615406366#1 615406368#0 615406368#1 615406368#2 615406368#3 857161781#1 851451436#1 851451411#14 851451411#15 851451411#16 851451411#17 851451445 851451444#1 851451447#3 851451447#2 851451447#1 838181247#1 838181247#0 838181240#5 838181240#6 838181249#0 837796129 791677556#3 791677556#4 838181281#0 838181281#1 791677554#1 838181285#0 838181267 838181282#5 838181282#6 838181290#0 793172594 337822445 986758307#0 986758311 43683180#12 43683180#11 43683180#10 43683180#9 43683180#8 501279012#0 501279012#1 501279012#2"/>
    </person>
    <person id="ped34" type="ped_pedestrian" depart="40.47">
        <walk edges="27679030#9 27679030#8 27679030#7 853628283#0 853628285#1 853628285#0 853628253#1 853628280#1 853628280#0 853628278#0 27679030#1 152354503#0 852062322#0 852062319#5 852062319#4 852062319#3 852062319#2 852062319#1 852062319#0 854133675#6 854133679 854133678#1 854133678#0 854133676 854133677#17 854133677#18 854133677#19 854133677#20 854133677#21 854133677#22 854133677#23 854133677#24 854133677#25 854133677#26 854133677#27 854133677#28 157520952#3 373636926#0 877409265#1 877808223#4 877808230#0 877808231#2 877808242#3 877808242#2 877808234#2 877808237#1 877808238#2 877808264#0 877808264#1 877808238#8"/>
    </person>
    <person id="ped35" type="ped_pedestrian" depart="41.66">