<?xml version="1.0" encoding="UTF-8"?>

<!-- generated on 2025-02-25 19:24:09.122941 by osmWebWizard.py UNKNOWN
<configuration>
    <net-file value="/Users/victordiazb/Sumo/2025-02-25-19-22-51/osm.net.xml.gz"/>
    <output-trip-file value="/Users/victordiazb/Sumo/2025-02-25-19-22-51/osm.pedestrian.trips.xml"/>
    <route-file value="/Users/victordiazb/Sumo/2025-02-25-19-22-51/osm.pedestrian.rou.xml"/>
    <pedestrians value="True"/>
    <prefix value="ped"/>
    <vehicle-class value="pedestrian"/>
    <fringe-factor value="1"/>
    <max-distance value="2000.0"/>
    <insertion-density value="15.0"/>
</configuration>
-->

<routes xmlns:xsi="http://www.w3.org/2001/XMLSchema-instance" xsi:noNamespaceSchemaLocation="http://sumo.dlr.de/xsd/routes_file.xsd">
    <vType id="ped_pedestrian" vClass="pedestrian"/>
    <person id="ped0" depart="0.00" type="ped_pedestrian">
        <walk from="841282822#1" to="-444147959#6"/>
    </person>
    <person id="ped1" depart="1.19" type="ped_pedestrian">
        <walk from="537204377#0" to="352349421#0"/>
    </person>
    <person id="ped2" depart="2.38" type="ped_pedestrian">
        <walk from="853201369" to="850391932#0"/>
    </person>
    <person id="ped3" depart="3.57" type="ped_pedestrian">
        <walk from="870310188#12" to="1118640601#0"/>
    </person>
    <person id="ped4" depart="4.76" type="ped_pedestrian">
        <walk from="791070562#4" to="-624265056#1"/>
    </person>
    <person id="ped5" depart="5.95" type="ped_pedestrian">
        <walk from="333484038#0" to="793188511#9"/>
    </person>
    <person id="ped6" depart="7.14" type="ped_pedestrian">
        <walk from="-515272983#4" to="228950077#0"/>
    </person>
    <person id="ped7" depart="8.33" type="ped_pedestrian">
        <walk from="850028723#1" to="821362497#1"/>
    </person>
    <person id="ped8" depart="9.52" type="ped_pedestrian">
        <walk from="337825259#5" to="837796093#0"/>
    </person>
    <person id="ped9" depart="10.71" type="ped_pedestrian">
        <walk from="856684608#1" to="-118249702#2"/>
    </person>
    <person id="ped10" depart="11.90" type="ped_pedestrian">
        <walk from="856684592#2" to="851451452"/>
    </person>
    <person id="ped11" depart="13.09" type="ped_pedestrian">
        <walk from="629839838#0" to="156043357#2"/>
    </person>
    <person id="ped12" depart="14.28" type="ped_pedestrian">
        <walk from="879204285" to="628584749#1"/>
    </person>
    <person id="ped13" depart="15.47" type="ped_pedestrian">
        <walk from="112022768#4" to="1122662277"/>
    </person>
    <person id="ped14" depart="16.66" type="ped_pedestrian">
        <walk from="860035072#2" to="838181281#1"/>
    </person>
    <person id="ped15" depart="17.85" type="ped_pedestrian">
        <walk from="856684598#1" to="852648314#3"/>
    </person>
    <person id="ped16" depart="19.04" type="ped_pedestrian">
        <walk from="820907201#1" to="880917487#0"/>
    </person>
    <person id="ped17" depart="20.23" type="ped_pedestrian">
        <walk from="665705211#0" to="836089667#1"/>
    </person>
    <person id="ped18" depart="21.42" type="ped_pedestrian">
        <walk from="857161858#1" to="838953190#0"/>
    </person>
    <person id="ped19" depart="22.61" type="ped_pedestrian">
        <walk from="852010803" to="-841282822#0"/>
    </person>
    <person id="ped20" depart="23.80" type="ped_pedestrian">
        <walk from="373785473#0" to="585758281#1"/>
    </person>
    <person id="ped21" depart="25.00" type="ped_pedestrian">
        <walk from="1105636442#2" to="42781715#0"/>
    </person>
    <person id="ped22" depart="26.19" type="ped_pedestrian">
        <walk from="118183615#1" to="558490499#1"/>
    </person>
    <person id="ped23" depart="27.38" type="ped_pedestrian">
        <walk from="841243415#0" to="656578886#20"/>
    </person>
    <person id="ped24" depart="28.57" type="ped_pedestrian">
        <walk from="659937495#1" to="27674217#0"/>
    </person>
    <person id="ped25" depart="29.76" type="ped_pedestrian">
        <walk from="501279008#2" to="877473384#1"/>
    </person>
    <person id="ped26" depart="30.95" type="ped_pedestrian">
        <walk from="850028711#5" to="838513533#3"/>
    </person>
    <person id="ped27" depart="32.14" type="ped_pedestrian">
        <walk from="158723848" to="852648314#12"/>
    </person>
    <person id="ped28" depart="33.33" type="ped_pedestrian">
        <walk from="157520952#6" to="665705217#4"/>
    </person>
    <person id="ped29" depart="34.52" type="ped_pedestrian">
        <walk from="893457086#0" to="841671030#0"/>
    </person>
    <person id="ped30" depart="35.71" type="ped_pedestrian">
        <walk from="836089687#0" to="850818967"/>
    </person>
    <person id="ped31" depart="36.90" type="ped_pedestrian">
        <walk from="860035051#3" to="853628273#1"/>
    </person>
    <person id="ped32" depart="38.09" type="ped_pedestrian">
        <walk from="374796816#0" to="-636300128#0"/>
    </person>
    <person id="ped33" depart="39.28" type="ped_pedestrian">
        <walk from="604420166#2" to="501279012#2"/>
    </person>
    <person id="ped34" depart="40.47" type="ped_pedestrian">
        <walk from="27679030#9" to="877808238#8"/>
    </person>
    <person id="ped35" depart="41.66" type="ped_pedestrian">
        <walk from="866622566#4" to="604420157#1"/>
    </person>
    <person id="ped36" depart="42.85" type="ped_pedestrian">
        <walk from="850028742#7" to="762085230"/>
    </person>
    <person id="ped37" depart="44.04" type="ped_pedestrian">
        <walk from="872209838" to="792840328#7"/>
    </person>
    <person id="ped38" depart="45.23" type="ped_pedestrian">
        <walk from="501279001#1" to="43683589#6"/>
    </person>
    <person id="ped39" depart="46.42" type="ped_pedestrian">
        <walk from="836394740" to="465859480#0"/>
    </person>
    <person id="ped40" depart="47.61" type="ped_pedestrian">
        <walk from="837056480#2" to="870310222"/>
    </person>
    <person id="ped41" depart="48.80" type="ped_pedestrian">
        <walk from="762689788#9" to="337822443"/>
    </person>
    <person id="ped42" depart="49.99" type="ped_pedestrian">
        <walk from="96288681#1" to="793188527#0"/>
    </person>
    <person id="ped43" depart="51.18" type="ped_pedestrian">
        <walk from="1119331022#2" to="-850103073#0"/>
    </person>
    <person id="ped44" depart="52.37" type="ped_pedestrian">
        <walk from="1204404591#3" to="838953234#3"/>
    </person>
    <person id="ped45" depart="53.56" type="ped_pedestrian">
        <walk from="856684523#1" to="791070565#1"/>
    </person>
    <person id="ped46" depart="54.75" type="ped_pedestrian">
        <walk from="105125170#0" to="707242468#1"/>
    </person>
    <person id="ped47" depart="55.94" type="ped_pedestrian">
        <walk from="941033577#2" to="815162720#2"/>
    </person>
    <person id="ped48" depart="57.13" type="ped_pedestrian">
        <walk from="880917467#1" to="865628867#7"/>
    </person>
    <person id="ped49" depart="58.32" type="ped_pedestrian">
        <walk from="-147522895#0" to="852311424#24"/>
    </person>
    <person id="ped50" depart="59.51" type="ped_pedestrian">
        <walk from="850818957#0" to="820907203#5"/>
    </person>
    <person id="ped51" depart="60.70" type="ped_pedestrian">
        <walk from="501279008#0" to="841671070"/>
    </person>
    <person id="ped52" depart="61.89" type="ped_pedestrian">
        <walk from="1204404595#2" to="791677498#4"/>
    </person>
    <person id="ped53" depart="63.08" type="ped_pedestrian">
        <walk from="792840298#0" to="879204272#1"/>
    </person>
    <person id="ped54" depart="64.27" type="ped_pedestrian">
        <walk from="866622563" to="49369591#1"/>
    </person>
    <person id="ped55" depart="65.46" type="ped_pedestrian">
        <walk from="793188498" to="161424706#0"/>
    </person>
    <person id="ped56" depart="66.65" type="ped_pedestrian">
        <walk from="872209824#0" to="866557057#3"/>
    </person>
    <person id="ped57" depart="67.84" type="ped_pedestrian">
        <walk from="589472295#4" to="841243440#0"/>
    </person>
    <person id="ped58" depart="69.03" type="ped_pedestrian">
        <walk from="838513533#2" to="155300399#1"/>
    </person>
    <person id="ped59" depart="70.22" type="ped_pedestrian">
        <walk from="853628173#1" to="821362464#1"/>
    </person>
    <person id="ped60" depart="71.41" type="ped_pedestrian">
        <walk from="-105125166" to="614141455#0"/>
    </person>
    <person id="ped61" depart="72.60" type="ped_pedestrian">
        <walk from="-229338783#1" to="877473344"/>
    </person>
    <person id="ped62" depart="73.79" type="ped_pedestrian">
        <walk from="866622577#5" to="857161867#0"/>
    </person>
    <person id="ped63" depart="74.99" type="ped_pedestrian">
        <walk from="598060658#5" to="100017573#1"/>
    </person>
    <person id="ped64" depart="76.18" type="ped_pedestrian">
        <walk from="866622577#14" to="877808273#1"/>
    </person>
    <person id="ped65" depart="77.37" type="ped_pedestrian">
        <walk from="1116399243" to="793172621#6"/>
    </person>
    <person id="ped66" depart="78.56" type="ped_pedestrian">
        <walk from="106407127#3" to="853628161#0"/>
    </person>
    <person id="ped67" depart="79.75" type="ped_pedestrian">
        <walk from="853628195#2" to="1360966918#5"/>
    </person>
    <person id="ped68" depart="80.94" type="ped_pedestrian">
        <walk from="792840394#1" to="836066078#0"/>
    </person>
    <person id="ped69" depart="82.13" type="ped_pedestrian">
        <walk from="501279001#2" to="866557078#0"/>
    </person>
    <person id="ped70" depart="83.32" type="ped_pedestrian">
        <walk from="791070568#5" to="27680115#1"/>
    </person>
    <person id="ped71" depart="84.51" type="ped_pedestrian">
        <walk from="821362464#0" to="852648314#5"/>
    </person>
    <person id="ped72" depart="85.70" type="ped_pedestrian">
        <walk from="240627294#1" to="598060676"/>
    </person>
    <person id="ped73" depart="86.89" type="ped_pedestrian">
        <walk from="935287255#1" to="850028723#1"/>
    </person>
    <person id="ped74" depart="88.08" type="ped_pedestrian">
        <walk from="791677527#6" to="794760719#1"/>
    </person>
    <person id="ped75" depart="89.27" type="ped_pedestrian">
        <walk from="124071113#2" to="365284145"/>
    </person>
    <person id="ped76" depart="90.46" type="ped_pedestrian">
        <walk from="629839833#1" to="837796088#1"/>
    </person>
    <person id="ped77" depart="91.65" type="ped_pedestrian">
        <walk from="39703829#0" to="337825259#2"/>
    </person>
    <person id="ped78" depart="92.84" type="ped_pedestrian">
        <walk from="374796814" to="870690833"/>
    </person>
    <person id="ped79" depart="94.03" type="ped_pedestrian">
        <walk from="865628867#1" to="1073321963"/>
    </person>
    <person id="ped80" depart="95.22" type="ped_pedestrian">
        <walk from="43683164#1" to="850103071#1"/>
    </person>
    <person id="ped81" depart="96.41" type="ped_pedestrian">
        <walk from="28238526" to="147522275#0"/>
    </person>
    <person id="ped82" depart="97.60" type="ped_pedestrian">
        <walk from="877473376#4" to="836793897"/>
    </person>
    <person id="ped83" depart="98.79" type="ped_pedestrian">
        <walk from="792840384#0" to="854133677#13"/>
    </person>
    <person id="ped84" depart="99.98" type="ped_pedestrian">
        <walk from="856684600#1" to="197065645#1"/>
    </person>
    <person id="ped85" depart="101.17" type="ped_pedestrian">
        <walk from="1123170687" to="791262690#1"/>
    </person>
    <person id="ped86" depart="102.36" type="ped_pedestrian">
        <walk from="791070569#0" to="792840361#3"/>
    </person>
    <person id="ped87" depart="103.55" type="ped_pedestrian">
        <walk from="852648314#11" to="850103113#3"/>
    </person>
    <person id="ped88" depart="104.74" type="ped_pedestrian">
        <walk from="885474261#1" to="1135163644"/>
    </person>
    <person id="ped89" depart="105.93" type="ped_pedestrian">
        <walk from="766574052#1" to="629839833#5"/>
    </person>
    <person id="ped90" depart="107.12" type="ped_pedestrian">
        <walk from="865628871#1" to="43685619#1"/>
    </person>
    <person id="ped91" depart="108.31" type="ped_pedestrian">
        <walk from="791070562#4" to="584423391#1"/>
    </person>
    <person id="ped92" depart="109.50" type="ped_pedestrian">
        <walk from="437516247#1" to="877409232#1"/>
    </person>
    <person id="ped93" depart="110.69" type="ped_pedestrian">
        <walk from="791677554#3" to="865628870#0"/>
    </person>
    <person id="ped94" depart="111.88" type="ped_pedestrian">
        <walk from="836066080#3" to="-866431136#1"/>
    </person>
    <person id="ped95" depart="113.07" type="ped_pedestrian">
        <walk from="98905671" to="857161889#0"/>
    </person>
    <person id="ped96" depart="114.26" type="ped_pedestrian">
        <walk from="880917449" to="877409273"/>
    </person>
    <person id="ped97" depart="115.45" type="ped_pedestrian">
        <walk from="860035075#1" to="158230279#3"/>
    </person>
    <person id="ped98" depart="116.64" type="ped_pedestrian">
        <walk from="793172621#2" to="27924020#0"/>
    </person>
    <person id="ped99" depart="117.83" type="ped_pedestrian">
        <walk from="762689798#3" to="1002255289"/>
    </person>
    <person id="ped100" depart="119.02" type="ped_pedestrian">
        <walk from="665705216#2" to="885474263#0"/>
    </person>
    <person id="ped101" depart="120.21" type="ped_pedestrian">
        <walk from="501279001#4" to="854133675#6"/>
    </person>
    <person id="ped102" depart="121.40" type="ped_pedestrian">
        <walk from="792840305#0" to="791070568#4"/>
    </person>
    <person id="ped103" depart="122.59" type="ped_pedestrian">
        <walk from="879204286" to="935287256#2"/>
    </person>
    <person id="ped104" depart="123.78" type="ped_pedestrian">
        <walk from="836089682#5" to="852311418#8"/>
    </person>
    <person id="ped105" depart="124.98" type="ped_pedestrian">
        <walk from="155437967#3" to="588751788#1"/>
    </person>
    <person id="ped106" depart="126.17" type="ped_pedestrian">
        <walk from="880917447#1" to="836793957"/>
    </person>
    <person id="ped107" depart="127.36" type="ped_pedestrian">
        <walk from="821362484#2" to="853256037#0"/>
    </person>
    <person id="ped108" depart="128.55" type="ped_pedestrian">
        <walk from="-96286309" to="837056478#1"/>
    </person>
    <person id="ped109" depart="129.74" type="ped_pedestrian">
        <walk from="793188504#6" to="860035094#1"/>
    </person>
    <person id="ped110" depart="130.93" type="ped_pedestrian">
        <walk from="156836055" to="879597517#2"/>
    </person>
    <person id="ped111" depart="132.12" type="ped_pedestrian">
        <walk from="1105636445" to="182390667#4"/>
    </person>
    <person id="ped112" depart="133.31" type="ped_pedestrian">
        <walk from="837796153#10" to="850391927#13"/>
    </person>
    <person id="ped113" depart="134.50" type="ped_pedestrian">
        <walk from="42782865" to="124067299"/>
    </person>
    <person id="ped114" depart="135.69" type="ped_pedestrian">
        <walk from="837796151#6" to="838953197#10"/>
    </person>
    <person id="ped115" depart="136.88" type="ped_pedestrian">
        <walk from="783397246#0" to="837056472"/>
    </person>
    <person id="ped116" depart="138.07" type="ped_pedestrian">
        <walk from="794773140#0" to="877473372#4"/>
    </person>
    <person id="ped117" depart="139.26" type="ped_pedestrian">
        <walk from="24496494#2" to="852278162#0"/>
    </person>
    <person id="ped118" depart="140.45" type="ped_pedestrian">
        <walk from="43683168#4" to="762085233"/>
    </person>
    <person id="ped119" depart="141.64" type="ped_pedestrian">
        <walk from="850103106#3" to="589521782#1"/>
    </person>
    <person id="ped120" depart="142.83" type="ped_pedestrian">
        <walk from="604420170#1" to="853256072#0"/>
    </person>
    <person id="ped121" depart="144.02" type="ped_pedestrian">
        <walk from="1078745274#1" to="792840328#1"/>
    </person>
    <person id="ped122" depart="145.21" type="ped_pedestrian">
        <walk from="986758311" to="941033577#2"/>
    </person>
    <person id="ped123" depart="146.40" type="ped_pedestrian">
        <walk from="1081108107" to="27702793#1"/>
    </person>
    <person id="ped124" depart="147.59" type="ped_pedestrian">
        <walk from="501279001#4" to="877473366#0"/>
    </person>
    <person id="ped125" depart="148.78" type="ped_pedestrian">
        <walk from="866622597#0" to="866622579"/>
    </person>
    <person id="ped126" depart="149.97" type="ped_pedestrian">
        <walk from="659937490#4" to="156837506#2"/>
    </person>
    <person id="ped127" depart="151.16" type="ped_pedestrian">
        <walk from="857161879#1" to="851485058#1"/>
    </person>
    <person id="ped128" depart="152.35" type="ped_pedestrian">
        <walk from="838513545" to="885474273"/>
    </person>
    <person id="ped129" depart="153.54" type="ped_pedestrian">
        <walk from="850028738#5" to="-120840576#2"/>
    </person>
    <person id="ped130" depart="154.73" type="ped_pedestrian">
        <walk from="857161800" to="589472301#4"/>
    </person>
    <person id="ped131" depart="155.92" type="ped_pedestrian">
        <walk from="850103036#1" to="877473392#1"/>
    </person>
    <person id="ped132" depart="157.11" type="ped_pedestrian">
        <walk from="1204404585#3" to="836089672#2"/>
    </person>
    <person id="ped133" depart="158.30" type="ped_pedestrian">
        <walk from="528663260#1" to="838181286#0"/>
    </person>
    <person id="ped134" depart="159.49" type="ped_pedestrian">
        <walk from="852311416#1" to="24415974#0"/>
    </person>
    <person id="ped135" depart="160.68" type="ped_pedestrian">
        <walk from="839307427#1" to="501278998#0"/>
    </person>
    <person id="ped136" depart="161.87" type="ped_pedestrian">
        <walk from="793172639#2" to="870690831#1"/>
    </person>
    <person id="ped137" depart="163.06" type="ped_pedestrian">
        <walk from="860035064" to="112022767"/>
    </person>
    <person id="ped138" depart="164.25" type="ped_pedestrian">
        <walk from="791070569#0" to="537204397#1"/>
    </person>
    <person id="ped139" depart="165.44" type="ped_pedestrian">
        <walk from="-1095032409#3" to="853628248#1"/>
    </person>
    <person id="ped140" depart="166.63" type="ped_pedestrian">
        <walk from="841243426#0" to="45728986#4"/>
    </person>
    <person id="ped141" depart="167.82" type="ped_pedestrian">
        <walk from="853201399#1" to="836089665#1"/>
    </person>
    <person id="ped142" depart="169.01" type="ped_pedestrian">
        <walk from="791070587#1" to="-1293577012"/>
    </person>
    <person id="ped143" depart="170.20" type="ped_pedestrian">
        <walk from="870690826#0" to="828132975#0"/>
    </person>
    <person id="ped144" depart="171.39" type="ped_pedestrian">
        <walk from="857161883#1" to="837056461#0"/>
    </person>
    <person id="ped145" depart="172.58" type="ped_pedestrian">
        <walk from="154318612#2" to="1357697193#2"/>
    </person>
    <person id="ped146" depart="173.77" type="ped_pedestrian">
        <walk from="598060660#5" to="870326517"/>
    </person>
    <person id="ped147" depart="174.97" type="ped_pedestrian">
        <walk from="856684538#5" to="865628867#6"/>
    </person>
    <person id="ped148" depart="176.16" type="ped_pedestrian">
        <walk from="870326517" to="27674232#0"/>
    </person>
    <person id="ped149" depart="177.35" type="ped_pedestrian">
        <walk from="437516246#1" to="118249698#1"/>
    </person>
    <person id="ped150" depart="178.54" type="ped_pedestrian">
        <walk from="853744689" to="866622620#1"/>
    </person>
    <person id="ped151" depart="179.73" type="ped_pedestrian">
        <walk from="768635573#1" to="838953197#22"/>
    </person>
    <person id="ped152" depart="180.92" type="ped_pedestrian">
        <walk from="155434787#1" to="877473350#1"/>
    </person>
    <person id="ped153" depart="182.11" type="ped_pedestrian">
        <walk from="865628888#0" to="883139599"/>
    </person>
    <person id="ped154" depart="183.30" type="ped_pedestrian">
        <walk from="856684616#1" to="866622602#3"/>
    </person>
    <person id="ped155" depart="184.49" type="ped_pedestrian">
        <walk from="-444147959#2" to="853201371#1"/>
    </person>
    <person id="ped156" depart="185.68" type="ped_pedestrian">
        <walk from="615406364#1" to="877473355#2"/>
    </person>
    <person id="ped157" depart="186.87" type="ped_pedestrian">
        <walk from="856684577#1" to="865628882#1"/>
    </person>
    <person id="ped158" depart="188.06" type="ped_pedestrian">
        <walk from="856684615#3" to="501279008#0"/>
    </person>
    <person id="ped159" depart="189.25" type="ped_pedestrian">
        <walk from="854170494#1" to="1204404588#3"/>
    </person>
    <person id="ped160" depart="190.44" type="ped_pedestrian">
        <walk from="866557076" to="865628855"/>
    </person>
    <person id="ped161" depart="191.63" type="ped_pedestrian">
        <walk from="352200584" to="857161799#4"/>
    </person>
    <person id="ped162" depart="192.82" type="ped_pedestrian">
        <walk from="792840335#2" to="598060649#0"/>
    </person>
    <person id="ped163" depart="194.01" type="ped_pedestrian">
        <walk from="856684535#1" to="373636926#0"/>
    </person>
    <person id="ped164" depart="195.20" type="ped_pedestrian">
        <walk from="-43685605#1" to="197146256#0"/>
    </person>
    <person id="ped165" depart="196.39" type="ped_pedestrian">
        <walk from="879605296" to="585390445#0"/>
    </person>
    <person id="ped166" depart="197.58" type="ped_pedestrian">
        <walk from="841671079" to="762689790#0"/>
    </person>
    <person id="ped167" depart="198.77" type="ped_pedestrian">
        <walk from="883139633#1" to="820907201#0"/>
    </person>
    <person id="ped168" depart="199.96" type="ped_pedestrian">
        <walk from="880917460" to="161285213"/>
    </person>
    <person id="ped169" depart="201.15" type="ped_pedestrian">
        <walk from="879597531" to="501279003#0"/>
    </person>
    <person id="ped170" depart="202.34" type="ped_pedestrian">
        <walk from="1204404589#2" to="791677498#2"/>
    </person>
    <person id="ped171" depart="203.53" type="ped_pedestrian">
        <walk from="852648313#0" to="60085885#2"/>
    </person>
    <person id="ped172" depart="204.72" type="ped_pedestrian">
        <walk from="838181291#0" to="793753131#0"/>
    </person>
    <person id="ped173" depart="205.91" type="ped_pedestrian">
        <walk from="713304995" to="836793935#1"/>
    </person>
    <person id="ped174" depart="207.10" type="ped_pedestrian">
        <walk from="43914490#0" to="852062310#4"/>
    </person>
    <person id="ped175" depart="208.29" type="ped_pedestrian">
        <walk from="-106608569" to="877409263"/>
    </person>
    <person id="ped176" depart="209.48" type="ped_pedestrian">
        <walk from="820907212#2" to="852311424#11"/>
    </person>
    <person id="ped177" depart="210.67" type="ped_pedestrian">
        <walk from="853201407#4" to="850103092#1"/>
    </person>
    <person id="ped178" depart="211.86" type="ped_pedestrian">
        <walk from="656578886#15" to="106407135#1"/>
    </person>
    <person id="ped179" depart="213.05" type="ped_pedestrian">
        <walk from="850103043#6" to="615391279#0"/>
    </person>
    <person id="ped180" depart="214.24" type="ped_pedestrian">
        <walk from="601338860#1" to="860035072#8"/>
    </person>
    <person id="ped181" depart="215.43" type="ped_pedestrian">
        <walk from="852311424#15" to="589521782#3"/>
    </person>
    <person id="ped182" depart="216.62" type="ped_pedestrian">
        <walk from="766227089" to="588751780#9"/>
    </person>
    <person id="ped183" depart="217.81" type="ped_pedestrian">
        <walk from="1348468230#1" to="791070557#1"/>
    </person>
    <person id="ped184" depart="219.00" type="ped_pedestrian">
        <walk from="877808224#0" to="850391936#2"/>
    </person>
    <person id="ped185" depart="220.19" type="ped_pedestrian">
        <walk from="870690816#1" to="838953178#13"/>
    </person>
    <person id="ped186" depart="221.38" type="ped_pedestrian">
        <walk from="591578483#1" to="836066058#1"/>
    </person>
    <person id="ped187" depart="222.57" type="ped_pedestrian">
        <walk from="-104300907#4" to="585720756#0"/>
    </person>
    <person id="ped188" depart="223.77" type="ped_pedestrian">
        <walk from="791070602" to="837056433"/>
    </person>
    <person id="ped189" depart="224.96" type="ped_pedestrian">
        <walk from="850028742#1" to="792840358#1"/>
    </person>
    <person id="ped190" depart="226.15" type="ped_pedestrian">
        <walk from="791677548#0" to="27924020#0"/>
    </person>
    <person id="ped191" depart="227.34" type="ped_pedestrian">
        <walk from="792840387#1" to="870690813#1"/>
    </person>
    <person id="ped192" depart="228.53" type="ped_pedestrian">
        <walk from="856684538#4" to="158416833#0"/>
    </person>
    <person id="ped193" depart="229.72" type="ped_pedestrian">
        <walk from="1116313545" to="794760688#3"/>
    </person>
    <person id="ped194" depart="230.91" type="ped_pedestrian">
        <walk from="839307411" to="624265050#0"/>
    </person>
    <person id="ped195" depart="232.10" type="ped_pedestrian">
        <walk from="857161810#3" to="853256068#0"/>
    </person>
    <person id="ped196" depart="233.29" type="ped_pedestrian">
        <walk from="850103109#3" to="365284144"/>
    </person>
    <person id="ped197" depart="234.48" type="ped_pedestrian">
        <walk from="228950078" to="-43785081#1"/>
    </person>
    <person id="ped198" depart="235.67" type="ped_pedestrian">
        <walk from="43683180#8" to="792840393#6"/>
    </person>
    <person id="ped199" depart="236.86" type="ped_pedestrian">
        <walk from="860035080#1" to="1079050684#1"/>
    </person>
    <person id="ped200" depart="238.05" type="ped_pedestrian">
        <walk from="204132392#2" to="851451429"/>
    </person>
    <person id="ped201" depart="239.24" type="ped_pedestrian">
        <walk from="793188475#0" to="43683180#10"/>
    </person>
    <person id="ped202" depart="240.43" type="ped_pedestrian">
        <walk from="850028747#0" to="-117277670#0"/>
    </person>
    <person id="ped203" depart="241.62" type="ped_pedestrian">
        <walk from="853256066" to="853628237#1"/>
    </person>
    <person id="ped204" depart="242.81" type="ped_pedestrian">
        <walk from="120432772#1" to="791070575#4"/>
    </person>
    <person id="ped205" depart="244.00" type="ped_pedestrian">
        <walk from="160717801#1" to="879204290#1"/>
    </person>
    <person id="ped206" depart="245.19" type="ped_pedestrian">
        <walk from="794760726#0" to="-865628839#0"/>
    </person>
    <person id="ped207" depart="246.38" type="ped_pedestrian">
        <walk from="43687303#1" to="860035073#1"/>
    </person>
    <person id="ped208" depart="247.57" type="ped_pedestrian">
        <walk from="792840311#0" to="856684569"/>
    </person>
    <person id="ped209" depart="248.76" type="ped_pedestrian">
        <walk from="850103066#7" to="885474277#3"/>
    </person>
    <person id="ped210" depart="249.95" type="ped_pedestrian">
        <walk from="837796153#2" to="878148493#1"/>
    </person>
    <person id="ped211" depart="251.14" type="ped_pedestrian">
        <walk from="868559931#0" to="838513554#1"/>
    </person>
    <person id="ped212" depart="252.33" type="ped_pedestrian">
        <walk from="852311424#10" to="793188511#3"/>
    </person>
    <person id="ped213" depart="253.52" type="ped_pedestrian">
        <walk from="857161862#1" to="836066058#1"/>
    </person>
    <person id="ped214" depart="254.71" type="ped_pedestrian">
        <walk from="870310219#2" to="853201417#0"/>
    </person>
    <person id="ped215" depart="255.90" type="ped_pedestrian">
        <walk from="792840393#1" to="45727602#1"/>
    </person>
    <person id="ped216" depart="257.09" type="ped_pedestrian">
        <walk from="43685222#1" to="841243430#0"/>
    </person>
    <person id="ped217" depart="258.28" type="ped_pedestrian">
        <walk from="853628195#2" to="794773131#2"/>
    </person>
    <person id="ped218" depart="259.47" type="ped_pedestrian">
        <walk from="838953232#7" to="537204373#1"/>
    </person>
    <person id="ped219" depart="260.66" type="ped_pedestrian">
        <walk from="1095135076#0" to="585720749#1"/>
    </person>
    <person id="ped220" depart="261.85" type="ped_pedestrian">
        <walk from="526919293#1" to="604728838#3"/>
    </person>
    <person id="ped221" depart="263.04" type="ped_pedestrian">
        <walk from="821362468#2" to="151734101#0"/>
    </person>
    <person id="ped222" depart="264.23" type="ped_pedestrian">
        <walk from="408855746#1" to="851451411#15"/>
    </person>
    <person id="ped223" depart="265.42" type="ped_pedestrian">
        <walk from="852028661#9" to="1052949954"/>
    </person>
    <person id="ped224" depart="266.61" type="ped_pedestrian">
        <walk from="770585694#1" to="821362489#0"/>
    </person>
    <person id="ped225" depart="267.80" type="ped_pedestrian">
        <walk from="779904862#1" to="24592663#6"/>
    </person>
    <person id="ped226" depart="268.99" type="ped_pedestrian">
        <walk from="791070555" to="870690829#5"/>
    </person>
    <person id="ped227" depart="270.18" type="ped_pedestrian">
        <walk from="837056478#0" to="851451417"/>
    </person>
    <person id="ped228" depart="271.37" type="ped_pedestrian">